* NGSPICE file created from FDDA_CMFB.ext - technology: sky130A

.subckt FDDA_CMFB_PEX V_B2 VDD VSS V_B4 V_B3 V_B1 V_PP V_PN V_NP V_NN V_OP VCM V_ON
X0 VSS.t9 V_B2.t0 V_SUM_P.t4 VSS.t8 sky130_fd_pr__nfet_01v8 ad=0.7192 pd=5.54 as=0.7192 ps=5.54 w=2.48 l=2
X1 V_SUM_P.t8 V_PP.t0 V_C.t8 VDD.t18 sky130_fd_pr__pfet_01v8 ad=1.3717 pd=9.75 as=1.3717 ps=9.75 w=9.46 l=0.3
X2 V_C.t7 V_PP.t1 V_SUM_P.t3 VDD.t17 sky130_fd_pr__pfet_01v8 ad=1.3717 pd=9.75 as=1.3717 ps=9.75 w=9.46 l=0.3
X3 V_SUM_N.t8 V_NP.t0 V_D.t14 VDD.t3 sky130_fd_pr__pfet_01v8 ad=1.3717 pd=9.75 as=1.3717 ps=9.75 w=9.46 l=0.3
X4 V_D.t15 V_NP.t1 V_SUM_N.t7 VDD.t9 sky130_fd_pr__pfet_01v8 ad=1.3717 pd=9.75 as=1.3717 ps=9.75 w=9.46 l=0.3
X5 V_SUM_N.t6 V_NP.t2 V_D.t16 VDD.t21 sky130_fd_pr__pfet_01v8 ad=1.3717 pd=9.75 as=1.3717 ps=9.75 w=9.46 l=0.3
X6 V_D.t10 V_D.t9 V_D.t10 VDD.t19 sky130_fd_pr__pfet_01v8 ad=1.3717 pd=9.75 as=0 ps=0 w=9.46 l=0.3
X7 V_D.t17 V_NP.t3 V_SUM_N.t5 VDD.t8 sky130_fd_pr__pfet_01v8 ad=1.3717 pd=9.75 as=1.3717 ps=9.75 w=9.46 l=0.3
X8 V_SUM_P.t14 V_NN.t0 V_D.t24 VDD.t20 sky130_fd_pr__pfet_01v8 ad=1.3717 pd=9.75 as=1.3717 ps=9.75 w=9.46 l=0.3
X9 V_ON.t0 V_B4.t0 V_NE.t0 VDD.t5 sky130_fd_pr__pfet_01v8 ad=0.2001 pd=1.96 as=0.2001 ps=1.96 w=0.69 l=1
X10 V_D.t13 V_NN.t1 V_SUM_P.t11 VDD.t22 sky130_fd_pr__pfet_01v8 ad=1.3717 pd=9.75 as=1.3717 ps=9.75 w=9.46 l=0.3
X11 V_CMFB.t9 VCM.t0 V_PA.t13 VSS.t27 sky130_fd_pr__nfet_01v8 ad=0.2244 pd=1.69 as=0.2244 ps=1.69 w=1.36 l=0.15
X12 VDD.t1 V_B1.t0 V_C.t0 VDD.t0 sky130_fd_pr__pfet_01v8 ad=0.7395 pd=5.68 as=0.7395 ps=5.68 w=2.55 l=0.7
X13 V_SUM_N.t4 V_NP.t4 V_D.t18 VDD.t25 sky130_fd_pr__pfet_01v8 ad=1.3717 pd=9.75 as=1.3717 ps=9.75 w=9.46 l=0.3
X14 V_CMFB.t8 VCM.t1 V_PA.t14 VSS.t20 sky130_fd_pr__nfet_01v8 ad=0.2244 pd=1.69 as=0.2244 ps=1.69 w=1.36 l=0.15
X15 V_NA.t26 V_NA.t25 V_NA.t26 VSS.t28 sky130_fd_pr__nfet_01v8 ad=0.2244 pd=1.69 as=0 ps=0 w=1.36 l=0.15
X16 V_PA.t22 V_OP.t2 V_PAD.t9 VSS.t16 sky130_fd_pr__nfet_01v8 ad=0.2244 pd=1.69 as=0.2244 ps=1.69 w=1.36 l=0.15
X17 V_CMFB.t7 VCM.t2 V_PA.t12 VSS.t19 sky130_fd_pr__nfet_01v8 ad=0.2244 pd=1.69 as=0.2244 ps=1.69 w=1.36 l=0.15
X18 V_C.t24 V_PN.t0 V_SUM_N.t15 VDD.t15 sky130_fd_pr__pfet_01v8 ad=1.3717 pd=9.75 as=1.3717 ps=9.75 w=9.46 l=0.3
X19 V_CMFB.t14 VCM.t3 V_NA.t16 VSS.t24 sky130_fd_pr__nfet_01v8 ad=0.2244 pd=1.69 as=0.2244 ps=1.69 w=1.36 l=0.15
X20 V_PA.t11 VCM.t4 V_CMFB.t6 VSS.t21 sky130_fd_pr__nfet_01v8 ad=0.2244 pd=1.69 as=0.2244 ps=1.69 w=1.36 l=0.15
X21 V_PA.t9 V_PA.t7 V_PA.t8 VSS.t15 sky130_fd_pr__nfet_01v8 ad=0.4216 pd=3.34 as=0 ps=0 w=1.36 l=0.15
X22 V_PE.t1 V_B4.t1 V_OP.t0 VDD.t2 sky130_fd_pr__pfet_01v8 ad=0.2001 pd=1.96 as=0.2001 ps=1.96 w=0.69 l=1
X23 V_C.t18 V_C.t17 V_C.t18 VDD.t27 sky130_fd_pr__pfet_01v8 ad=1.3717 pd=9.75 as=0 ps=0 w=9.46 l=0.3
X24 V_NA.t4 V_ON.t2 V_NAD.t7 VSS.t14 sky130_fd_pr__nfet_01v8 ad=0.2244 pd=1.69 as=0.2244 ps=1.69 w=1.36 l=0.15
X25 V_PA.t15 VCM.t5 V_CMFB.t5 VSS.t10 sky130_fd_pr__nfet_01v8 ad=0.2244 pd=1.69 as=0.2244 ps=1.69 w=1.36 l=0.15
X26 V_D.t23 V_B1.t1 VDD.t29 VDD.t28 sky130_fd_pr__pfet_01v8 ad=0.7395 pd=5.68 as=0.7395 ps=5.68 w=2.55 l=0.7
X27 VDD.t33 V_CMFB.t0 V_CMFB.t1 VDD.t32 sky130_fd_pr__pfet_01v8 ad=1.1426 pd=8.46 as=1.1426 ps=8.46 w=3.94 l=0.4
X28 V_SUM_N.t11 V_PN.t1 V_C.t20 VDD.t18 sky130_fd_pr__pfet_01v8 ad=1.3717 pd=9.75 as=1.3717 ps=9.75 w=9.46 l=0.3
X29 V_C.t21 V_PN.t2 V_SUM_N.t12 VDD.t17 sky130_fd_pr__pfet_01v8 ad=1.3717 pd=9.75 as=1.3717 ps=9.75 w=9.46 l=0.3
X30 V_PA.t16 VCM.t6 V_CMFB.t4 VSS.t23 sky130_fd_pr__nfet_01v8 ad=0.2244 pd=1.69 as=0.2244 ps=1.69 w=1.36 l=0.15
X31 V_C.t16 V_C.t14 V_C.t15 VDD.t26 sky130_fd_pr__pfet_01v8 ad=2.7434 pd=19.5 as=0 ps=0 w=9.46 l=0.3
X32 V_SUM_N.t9 V_PN.t3 V_C.t19 VDD.t14 sky130_fd_pr__pfet_01v8 ad=1.3717 pd=9.75 as=1.3717 ps=9.75 w=9.46 l=0.3
X33 V_SUM_P.t12 V_NN.t2 V_D.t22 VDD.t21 sky130_fd_pr__pfet_01v8 ad=1.3717 pd=9.75 as=1.3717 ps=9.75 w=9.46 l=0.3
X34 V_D.t26 V_NN.t3 V_SUM_P.t16 VDD.t8 sky130_fd_pr__pfet_01v8 ad=1.3717 pd=9.75 as=1.3717 ps=9.75 w=9.46 l=0.3
X35 V_NA.t5 V_ON.t3 V_NAD.t6 VSS.t22 sky130_fd_pr__nfet_01v8 ad=0.2244 pd=1.69 as=0.2244 ps=1.69 w=1.36 l=0.15
X36 V_PA.t6 V_PA.t5 V_PA.t6 VSS.t1 sky130_fd_pr__nfet_01v8 ad=0.2244 pd=1.69 as=0 ps=0 w=1.36 l=0.15
X37 V_SUM_P.t2 V_PP.t2 V_C.t6 VDD.t16 sky130_fd_pr__pfet_01v8 ad=1.3717 pd=9.75 as=1.3717 ps=9.75 w=9.46 l=0.3
X38 V_SUM_N.t3 V_NP.t5 V_D.t19 VDD.t20 sky130_fd_pr__pfet_01v8 ad=1.3717 pd=9.75 as=1.3717 ps=9.75 w=9.46 l=0.3
X39 V_NA.t15 VCM.t7 V_CMFB.t11 VSS.t13 sky130_fd_pr__nfet_01v8 ad=0.2244 pd=1.69 as=0.2244 ps=1.69 w=1.36 l=0.15
X40 V_NA.t24 V_NA.t22 V_NA.t23 VSS.t29 sky130_fd_pr__nfet_01v8 ad=0.4216 pd=3.34 as=0 ps=0 w=1.36 l=0.15
X41 V_CMFB.t3 VCM.t8 V_PA.t18 VSS.t11 sky130_fd_pr__nfet_01v8 ad=0.2244 pd=1.69 as=0.2244 ps=1.69 w=1.36 l=0.15
X42 V_D.t20 V_NP.t6 V_SUM_N.t2 VDD.t22 sky130_fd_pr__pfet_01v8 ad=1.3717 pd=9.75 as=1.3717 ps=9.75 w=9.46 l=0.3
X43 V_CMFB.t10 VCM.t9 V_NA.t14 VSS.t17 sky130_fd_pr__nfet_01v8 ad=0.2244 pd=1.69 as=0.2244 ps=1.69 w=1.36 l=0.15
X44 V_NA.t13 VCM.t10 V_CMFB.t15 VSS.t0 sky130_fd_pr__nfet_01v8 ad=0.2244 pd=1.69 as=0.2244 ps=1.69 w=1.36 l=0.15
X45 V_D.t21 V_NP.t7 V_SUM_N.t1 VDD.t4 sky130_fd_pr__pfet_01v8 ad=1.3717 pd=9.75 as=1.3717 ps=9.75 w=9.46 l=0.3
X46 V_SUM_P.t10 V_NN.t4 V_D.t12 VDD.t25 sky130_fd_pr__pfet_01v8 ad=1.3717 pd=9.75 as=1.3717 ps=9.75 w=9.46 l=0.3
X47 V_CMFB.t16 VCM.t11 V_NA.t12 VSS.t18 sky130_fd_pr__nfet_01v8 ad=0.2244 pd=1.69 as=0.2244 ps=1.69 w=1.36 l=0.15
X48 V_SUM_N.t0 V_B2.t1 VSS.t7 VSS.t6 sky130_fd_pr__nfet_01v8 ad=0.7192 pd=5.54 as=0.7192 ps=5.54 w=2.48 l=2
X49 V_CMFB.t17 VCM.t12 V_NA.t11 VSS.t12 sky130_fd_pr__nfet_01v8 ad=0.2244 pd=1.69 as=0.2244 ps=1.69 w=1.36 l=0.15
X50 V_SUM_P.t13 V_B3.t0 V_ON.t1 VSS.t25 sky130_fd_pr__nfet_01v8 ad=0.1914 pd=1.9 as=0.1914 ps=1.9 w=0.66 l=3
X51 V_C.t5 V_PP.t3 V_SUM_P.t6 VDD.t15 sky130_fd_pr__pfet_01v8 ad=1.3717 pd=9.75 as=1.3717 ps=9.75 w=9.46 l=0.3
X52 V_C.t13 V_C.t12 V_C.t13 VDD.t27 sky130_fd_pr__pfet_01v8 ad=1.3717 pd=9.75 as=0 ps=0 w=9.46 l=0.3
X53 V_PE.t0 V_CMFB.t18 VDD.t7 VDD.t6 sky130_fd_pr__pfet_01v8 ad=0.2436 pd=2.26 as=0.2436 ps=2.26 w=0.84 l=0.4
X54 V_C.t11 V_C.t9 V_C.t10 VDD.t26 sky130_fd_pr__pfet_01v8 ad=2.7434 pd=19.5 as=0 ps=0 w=9.46 l=0.3
X55 V_SUM_P.t17 V_PP.t4 V_C.t4 VDD.t14 sky130_fd_pr__pfet_01v8 ad=1.3717 pd=9.75 as=1.3717 ps=9.75 w=9.46 l=0.3
X56 V_D.t8 V_D.t6 V_D.t7 VDD.t10 sky130_fd_pr__pfet_01v8 ad=2.7434 pd=19.5 as=0 ps=0 w=9.46 l=0.3
X57 V_SUM_N.t16 V_PN.t4 V_C.t25 VDD.t16 sky130_fd_pr__pfet_01v8 ad=1.3717 pd=9.75 as=1.3717 ps=9.75 w=9.46 l=0.3
X58 V_C.t3 V_PP.t5 V_SUM_P.t1 VDD.t13 sky130_fd_pr__pfet_01v8 ad=1.3717 pd=9.75 as=1.3717 ps=9.75 w=9.46 l=0.3
X59 V_SUM_N.t17 V_PN.t5 V_C.t26 VDD.t12 sky130_fd_pr__pfet_01v8 ad=1.3717 pd=9.75 as=1.3717 ps=9.75 w=9.46 l=0.3
X60 V_PAD.t8 V_OP.t3 V_PA.t26 VSS.t27 sky130_fd_pr__nfet_01v8 ad=0.2244 pd=1.69 as=0.2244 ps=1.69 w=1.36 l=0.15
X61 V_OP.t1 V_B3.t1 V_SUM_N.t10 VSS.t26 sky130_fd_pr__nfet_01v8 ad=0.1914 pd=1.9 as=0.1914 ps=1.9 w=0.66 l=3
X62 V_C.t23 V_PN.t6 V_SUM_N.t14 VDD.t11 sky130_fd_pr__pfet_01v8 ad=1.3717 pd=9.75 as=1.3717 ps=9.75 w=9.46 l=0.3
X63 V_D.t25 V_NN.t5 V_SUM_P.t15 VDD.t4 sky130_fd_pr__pfet_01v8 ad=1.3717 pd=9.75 as=1.3717 ps=9.75 w=9.46 l=0.3
X64 V_PAD.t7 V_OP.t4 V_PA.t24 VSS.t20 sky130_fd_pr__nfet_01v8 ad=0.2244 pd=1.69 as=0.2244 ps=1.69 w=1.36 l=0.15
X65 V_PAD.t1 V_PAD.t0 VDD.t24 VDD.t23 sky130_fd_pr__pfet_01v8 ad=0.5713 pd=4.52 as=0.5713 ps=4.52 w=1.97 l=0.4
X66 V_NA.t21 V_NA.t20 V_NA.t21 VSS.t28 sky130_fd_pr__nfet_01v8 ad=0.2244 pd=1.69 as=0 ps=0 w=1.36 l=0.15
X67 V_PA.t17 VCM.t13 V_CMFB.t2 VSS.t16 sky130_fd_pr__nfet_01v8 ad=0.2244 pd=1.69 as=0.2244 ps=1.69 w=1.36 l=0.15
X68 V_PAD.t6 V_OP.t5 V_PA.t25 VSS.t19 sky130_fd_pr__nfet_01v8 ad=0.2244 pd=1.69 as=0.2244 ps=1.69 w=1.36 l=0.15
X69 VSS.t5 V_B2.t2 V_PA.t10 VSS.t4 sky130_fd_pr__nfet_01v8 ad=0.7192 pd=5.54 as=0.7192 ps=5.54 w=2.48 l=2
X70 V_NAD.t5 V_ON.t4 V_NA.t6 VSS.t24 sky130_fd_pr__nfet_01v8 ad=0.2244 pd=1.69 as=0.2244 ps=1.69 w=1.36 l=0.15
X71 V_PA.t21 V_OP.t6 V_PAD.t5 VSS.t21 sky130_fd_pr__nfet_01v8 ad=0.2244 pd=1.69 as=0.2244 ps=1.69 w=1.36 l=0.15
X72 V_PA.t4 V_PA.t2 V_PA.t3 VSS.t15 sky130_fd_pr__nfet_01v8 ad=0.4216 pd=3.34 as=0 ps=0 w=1.36 l=0.15
X73 V_PA.t19 V_OP.t7 V_PAD.t4 VSS.t10 sky130_fd_pr__nfet_01v8 ad=0.2244 pd=1.69 as=0.2244 ps=1.69 w=1.36 l=0.15
X74 VDD.t35 V_NAD.t8 V_NAD.t9 VDD.t34 sky130_fd_pr__pfet_01v8 ad=0.5713 pd=4.52 as=0.5713 ps=4.52 w=1.97 l=0.4
X75 V_SUM_P.t0 V_NN.t6 V_D.t0 VDD.t3 sky130_fd_pr__pfet_01v8 ad=1.3717 pd=9.75 as=1.3717 ps=9.75 w=9.46 l=0.3
X76 V_NA.t10 VCM.t14 V_CMFB.t12 VSS.t14 sky130_fd_pr__nfet_01v8 ad=0.2244 pd=1.69 as=0.2244 ps=1.69 w=1.36 l=0.15
X77 V_PA.t23 V_OP.t8 V_PAD.t3 VSS.t23 sky130_fd_pr__nfet_01v8 ad=0.2244 pd=1.69 as=0.2244 ps=1.69 w=1.36 l=0.15
X78 V_D.t11 V_NN.t7 V_SUM_P.t9 VDD.t9 sky130_fd_pr__pfet_01v8 ad=1.3717 pd=9.75 as=1.3717 ps=9.75 w=9.46 l=0.3
X79 V_D.t5 V_D.t4 V_D.t5 VDD.t19 sky130_fd_pr__pfet_01v8 ad=1.3717 pd=9.75 as=0 ps=0 w=9.46 l=0.3
X80 V_D.t3 V_D.t1 V_D.t2 VDD.t10 sky130_fd_pr__pfet_01v8 ad=2.7434 pd=19.5 as=0 ps=0 w=9.46 l=0.3
X81 V_NA.t9 VCM.t15 V_CMFB.t13 VSS.t22 sky130_fd_pr__nfet_01v8 ad=0.2244 pd=1.69 as=0.2244 ps=1.69 w=1.36 l=0.15
X82 V_NA.t7 V_ON.t5 V_NAD.t4 VSS.t13 sky130_fd_pr__nfet_01v8 ad=0.2244 pd=1.69 as=0.2244 ps=1.69 w=1.36 l=0.15
X83 V_PA.t1 V_PA.t0 V_PA.t1 VSS.t1 sky130_fd_pr__nfet_01v8 ad=0.2244 pd=1.69 as=0 ps=0 w=1.36 l=0.15
X84 V_NA.t19 V_NA.t17 V_NA.t18 VSS.t29 sky130_fd_pr__nfet_01v8 ad=0.4216 pd=3.34 as=0 ps=0 w=1.36 l=0.15
X85 V_PAD.t2 V_OP.t9 V_PA.t20 VSS.t11 sky130_fd_pr__nfet_01v8 ad=0.2244 pd=1.69 as=0.2244 ps=1.69 w=1.36 l=0.15
X86 V_C.t22 V_PN.t7 V_SUM_N.t13 VDD.t13 sky130_fd_pr__pfet_01v8 ad=1.3717 pd=9.75 as=1.3717 ps=9.75 w=9.46 l=0.3
X87 V_SUM_P.t5 V_PP.t6 V_C.t2 VDD.t12 sky130_fd_pr__pfet_01v8 ad=1.3717 pd=9.75 as=1.3717 ps=9.75 w=9.46 l=0.3
X88 V_NAD.t3 V_ON.t6 V_NA.t2 VSS.t17 sky130_fd_pr__nfet_01v8 ad=0.2244 pd=1.69 as=0.2244 ps=1.69 w=1.36 l=0.15
X89 V_NA.t3 V_ON.t7 V_NAD.t2 VSS.t0 sky130_fd_pr__nfet_01v8 ad=0.2244 pd=1.69 as=0.2244 ps=1.69 w=1.36 l=0.15
X90 V_C.t1 V_PP.t7 V_SUM_P.t7 VDD.t11 sky130_fd_pr__pfet_01v8 ad=1.3717 pd=9.75 as=1.3717 ps=9.75 w=9.46 l=0.3
X91 V_NAD.t1 V_ON.t8 V_NA.t0 VSS.t18 sky130_fd_pr__nfet_01v8 ad=0.2244 pd=1.69 as=0.2244 ps=1.69 w=1.36 l=0.15
X92 VDD.t31 V_CMFB.t19 V_NE.t1 VDD.t30 sky130_fd_pr__pfet_01v8 ad=0.2436 pd=2.26 as=0.2436 ps=2.26 w=0.84 l=0.4
X93 V_NAD.t0 V_ON.t9 V_NA.t1 VSS.t12 sky130_fd_pr__nfet_01v8 ad=0.2244 pd=1.69 as=0.2244 ps=1.69 w=1.36 l=0.15
X94 V_NA.t8 V_B2.t3 VSS.t3 VSS.t2 sky130_fd_pr__nfet_01v8 ad=0.7192 pd=5.54 as=0.7192 ps=5.54 w=2.48 l=2
C0 V_C VCM 0.01322f
C1 VDD V_B1 1.28542f
C2 V_D V_OP 0.11173f
C3 V_ON VCM 3.54688f
C4 V_C V_PN 1.49627f
C5 V_CMFB V_NE 0.30386f
C6 V_SUM_N V_CMFB 0.15493f
C7 V_D V_NN 1.50848f
C8 V_CMFB V_NP 1.40903f
C9 V_CMFB V_PE 0.34116f
C10 VDD V_B4 1.49924f
C11 V_CMFB V_OP 0.74351f
C12 V_NA V_CMFB 2.57162f
C13 V_SUM_P V_SUM_N 4.72347f
C14 V_B1 V_C 0.07603f
C15 VDD V_C 5.36379f
C16 V_D V_PAD 0.1789f
C17 V_CMFB V_NAD 5.20268f
C18 V_SUM_P V_NP 0.15375f
C19 VDD V_ON 0.26818f
C20 V_CMFB V_PP 1.40857f
C21 V_B3 V_B2 0.04627f
C22 V_PA V_CMFB 2.57166f
C23 V_SUM_P V_NA 0.5027f
C24 V_CMFB VCM 0.65591f
C25 V_ON V_B3 0.13622f
C26 V_CMFB V_PAD 5.20268f
C27 V_SUM_N V_NP 2.34397f
C28 V_SUM_P V_NN 1.21508f
C29 V_B4 V_ON 0.11385f
C30 V_SUM_P V_NAD 0.05497f
C31 V_SUM_P V_PP 2.35883f
C32 V_SUM_N V_OP 2.25877f
C33 V_D V_B1 0.07603f
C34 VDD V_D 5.36528f
C35 V_NP V_OP 0.05861f
C36 V_ON V_C 0.10417f
C37 V_PE V_OP 0.04447f
C38 V_SUM_P VCM 0.01581f
C39 V_SUM_N V_NN 3.13395f
C40 V_NP V_NN 5.86408f
C41 V_SUM_P V_PN 3.13716f
C42 V_SUM_N V_PP 0.15428f
C43 VDD V_CMFB 2.93517f
C44 V_NP V_PP 0.0131f
C45 V_NN V_OP 0.01253f
C46 V_PA V_SUM_N 0.5027f
C47 V_SUM_N VCM 0.01403f
C48 V_SUM_N V_PAD 0.05497f
C49 V_NA V_NAD 2.32266f
C50 V_D V_C 0.30026f
C51 V_PAD V_NP 0.02765f
C52 V_SUM_N V_PN 1.21463f
C53 V_CMFB V_B4 0.07134f
C54 V_PA V_OP 0.41749f
C55 VCM V_OP 3.54578f
C56 V_PAD V_OP 1.99888f
C57 V_NAD V_PP 0.02702f
C58 VDD V_SUM_P 0.99652f
C59 V_PA V_NA 0.71908f
C60 V_NA VCM 0.38049f
C61 V_NN VCM 0.04044f
C62 V_CMFB V_C 0.9818f
C63 V_NAD VCM 0.92205f
C64 V_NAD V_PAD 0.03566f
C65 V_SUM_P V_B3 0.12827f
C66 V_CMFB V_ON 0.74221f
C67 VCM V_PP 0.01133f
C68 VDD V_NE 0.45025f
C69 VDD V_SUM_N 0.99653f
C70 V_PP V_PN 5.86417f
C71 VDD V_NP 1.34807f
C72 V_PA VCM 0.41155f
C73 V_PA V_PAD 2.32259f
C74 VDD V_PE 0.46109f
C75 V_PAD VCM 0.92215f
C76 V_SUM_P V_B2 0.35602f
C77 V_SUM_N V_B3 0.12827f
C78 V_SUM_P V_C 10.4102f
C79 VDD V_OP 0.26867f
C80 VCM V_PN 0.02776f
C81 V_NE V_B4 0.03951f
C82 V_SUM_P V_ON 2.25609f
C83 V_D V_CMFB 0.9819f
C84 VDD V_NN 1.45519f
C85 V_B4 V_PE 0.03951f
C86 VDD V_NAD 1.0846f
C87 V_B3 V_OP 0.10798f
C88 V_B4 V_OP 0.11385f
C89 V_SUM_N V_B2 0.35602f
C90 V_NA V_B3 0.12184f
C91 V_SUM_N V_C 10.2536f
C92 VDD V_PP 1.31471f
C93 V_NE V_ON 0.04447f
C94 VDD VCM 0.02032f
C95 VDD V_PAD 1.07635f
C96 V_SUM_P V_D 10.2536f
C97 V_ON V_OP 0.08774f
C98 V_NA V_B2 0.36916f
C99 VDD V_PN 1.48148f
C100 V_PA V_B3 0.12184f
C101 V_NA V_ON 0.45201f
C102 V_B3 VCM 0.07704f
C103 V_C V_NAD 0.17889f
C104 V_ON V_NAD 1.91585f
C105 V_C V_PP 1.85195f
C106 V_SUM_P V_CMFB 0.15493f
C107 V_SUM_N V_D 10.4102f
C108 V_ON V_PP 0.0806f
C109 V_D V_NP 1.83894f
C110 V_PA V_B2 0.36916f
R0 V_B2.n34 V_B2.n33 189.245
R1 V_B2.n40 V_B2.n27 189.245
R2 V_B2.n46 V_B2.n45 189.245
R3 V_B2.n10 V_B2.n9 189.245
R4 V_B2.n13 V_B2.n2 189.245
R5 V_B2.n22 V_B2.n21 189.245
R6 V_B2.n33 V_B2.n32 152
R7 V_B2.n40 V_B2.n39 152
R8 V_B2.n45 V_B2.n44 152
R9 V_B2.n9 V_B2.n8 152
R10 V_B2.n15 V_B2.n2 152
R11 V_B2.n21 V_B2.n20 152
R12 V_B2.n31 V_B2.n30 67.2341
R13 V_B2.n43 V_B2.n42 67.2341
R14 V_B2.n7 V_B2.n6 67.2341
R15 V_B2.n19 V_B2.n18 67.2341
R16 V_B2.n41 V_B2.n26 67.2334
R17 V_B2.n17 V_B2.n16 67.2333
R18 V_B2.n33 V_B2.n30 37.246
R19 V_B2.n41 V_B2.n40 37.246
R20 V_B2.n45 V_B2.n42 37.246
R21 V_B2.n9 V_B2.n6 37.246
R22 V_B2.n17 V_B2.n2 37.246
R23 V_B2.n21 V_B2.n18 37.246
R24 V_B2.n30 V_B2.t3 29.8845
R25 V_B2.n42 V_B2.t0 29.8845
R26 V_B2.t0 V_B2.n41 29.8845
R27 V_B2.n6 V_B2.t2 29.8845
R28 V_B2.n18 V_B2.t1 29.8845
R29 V_B2.t1 V_B2.n17 29.8845
R30 V_B2.n39 V_B2.n26 28.8221
R31 V_B2.n16 V_B2.n15 28.8221
R32 V_B2.n32 V_B2.n31 28.8219
R33 V_B2.n44 V_B2.n43 28.8219
R34 V_B2.n8 V_B2.n7 28.8219
R35 V_B2.n20 V_B2.n19 28.8219
R36 V_B2.n34 V_B2.n29 24.0946
R37 V_B2.n38 V_B2.n27 24.0946
R38 V_B2.n46 V_B2.n25 24.0946
R39 V_B2.n10 V_B2.n5 24.0946
R40 V_B2.n14 V_B2.n13 24.0946
R41 V_B2.n22 V_B2.n1 24.0946
R42 V_B2.n35 V_B2.n34 12.3123
R43 V_B2.n36 V_B2.n27 12.3123
R44 V_B2.n47 V_B2.n46 12.3123
R45 V_B2.n11 V_B2.n10 12.3123
R46 V_B2.n13 V_B2.n12 12.3123
R47 V_B2.n23 V_B2.n22 12.3123
R48 V_B2.n29 V_B2.n28 9.3005
R49 V_B2.n38 V_B2.n37 9.3005
R50 V_B2.n5 V_B2.n4 9.3005
R51 V_B2.n14 V_B2.n3 9.3005
R52 V_B2.n25 V_B2.n24 9.3005
R53 V_B2.n1 V_B2.n0 9.3005
R54 V_B2.n37 V_B2.n26 4.17934
R55 V_B2.n16 V_B2.n3 4.17934
R56 V_B2.n31 V_B2.n28 4.17863
R57 V_B2.n7 V_B2.n4 4.17863
R58 V_B2.n19 V_B2.n0 4.17863
R59 V_B2.n43 V_B2.n24 4.17863
R60 V_B2.n36 V_B2.n35 1.78854
R61 V_B2.n12 V_B2.n11 1.78854
R62 V_B2.n32 V_B2.n29 1.50638
R63 V_B2.n39 V_B2.n38 1.50638
R64 V_B2.n44 V_B2.n25 1.50638
R65 V_B2.n8 V_B2.n5 1.50638
R66 V_B2.n15 V_B2.n14 1.50638
R67 V_B2.n20 V_B2.n1 1.50638
R68 V_B2 V_B2.n23 0.929848
R69 V_B2 V_B2.n47 0.859196
R70 V_B2.n37 V_B2.n36 0.196152
R71 V_B2.n35 V_B2.n28 0.196152
R72 V_B2.n11 V_B2.n4 0.196152
R73 V_B2.n12 V_B2.n3 0.196152
R74 V_B2.n23 V_B2.n0 0.196152
R75 V_B2.n47 V_B2.n24 0.196152
R76 V_SUM_P.n40 V_SUM_P.n39 585
R77 V_SUM_P.n22 V_SUM_P.n21 585
R78 V_SUM_P.n14 V_SUM_P.n13 585
R79 V_SUM_P.n2 V_SUM_P.n1 585
R80 V_SUM_P.n28 V_SUM_P.n27 585
R81 V_SUM_P.n46 V_SUM_P.n45 585
R82 V_SUM_P.n54 V_SUM_P.n53 585
R83 V_SUM_P.n65 V_SUM_P.n64 585
R84 V_SUM_P.n25 V_SUM_P.t13 134.727
R85 V_SUM_P.n25 V_SUM_P.t4 36.2897
R86 V_SUM_P.n38 V_SUM_P.n37 31.4479
R87 V_SUM_P.n20 V_SUM_P.n19 31.4479
R88 V_SUM_P.n12 V_SUM_P.n11 31.4479
R89 V_SUM_P.n4 V_SUM_P.n3 31.4479
R90 V_SUM_P.n30 V_SUM_P.n29 31.4479
R91 V_SUM_P.n48 V_SUM_P.n47 31.4479
R92 V_SUM_P.n56 V_SUM_P.n55 31.4479
R93 V_SUM_P.n63 V_SUM_P.n62 31.4479
R94 V_SUM_P.n3 V_SUM_P.n2 22.8505
R95 V_SUM_P.n29 V_SUM_P.n28 22.8505
R96 V_SUM_P.n47 V_SUM_P.n46 22.8505
R97 V_SUM_P.n55 V_SUM_P.n54 22.8505
R98 V_SUM_P.n64 V_SUM_P.n63 22.8505
R99 V_SUM_P.n39 V_SUM_P.n38 22.8505
R100 V_SUM_P.n21 V_SUM_P.n20 22.8505
R101 V_SUM_P.n13 V_SUM_P.n12 22.8505
R102 V_SUM_P.n40 V_SUM_P.n37 21.0829
R103 V_SUM_P.n22 V_SUM_P.n19 21.0829
R104 V_SUM_P.n14 V_SUM_P.n11 21.0829
R105 V_SUM_P.n4 V_SUM_P.n1 21.0829
R106 V_SUM_P.n30 V_SUM_P.n27 21.0829
R107 V_SUM_P.n48 V_SUM_P.n45 21.0829
R108 V_SUM_P.n56 V_SUM_P.n53 21.0829
R109 V_SUM_P.n65 V_SUM_P.n62 21.0829
R110 V_SUM_P.n41 V_SUM_P.n40 15.4346
R111 V_SUM_P.n23 V_SUM_P.n22 15.4346
R112 V_SUM_P.n15 V_SUM_P.n14 15.4346
R113 V_SUM_P.n6 V_SUM_P.n1 15.4346
R114 V_SUM_P.n32 V_SUM_P.n27 15.4346
R115 V_SUM_P.n50 V_SUM_P.n45 15.4346
R116 V_SUM_P.n58 V_SUM_P.n53 15.4346
R117 V_SUM_P.n66 V_SUM_P.n65 15.4346
R118 V_SUM_P.n73 V_SUM_P.n25 14.5614
R119 V_SUM_P.n37 V_SUM_P.n36 9.3005
R120 V_SUM_P.n19 V_SUM_P.n18 9.3005
R121 V_SUM_P.n11 V_SUM_P.n10 9.3005
R122 V_SUM_P.n5 V_SUM_P.n4 9.3005
R123 V_SUM_P.n31 V_SUM_P.n30 9.3005
R124 V_SUM_P.n49 V_SUM_P.n48 9.3005
R125 V_SUM_P.n57 V_SUM_P.n56 9.3005
R126 V_SUM_P.n62 V_SUM_P.n61 9.3005
R127 V_SUM_P V_SUM_P.n75 7.66345
R128 V_SUM_P.n72 V_SUM_P.n34 6.61398
R129 V_SUM_P.n72 V_SUM_P.n71 4.8342
R130 V_SUM_P.n42 V_SUM_P.n35 4.67358
R131 V_SUM_P.n24 V_SUM_P.n17 4.67358
R132 V_SUM_P.n16 V_SUM_P.n9 4.67358
R133 V_SUM_P.n7 V_SUM_P.n0 4.67358
R134 V_SUM_P.n33 V_SUM_P.n26 4.67358
R135 V_SUM_P.n51 V_SUM_P.n44 4.67358
R136 V_SUM_P.n59 V_SUM_P.n52 4.67358
R137 V_SUM_P.n67 V_SUM_P.n60 4.67358
R138 V_SUM_P.n42 V_SUM_P.n41 4.5005
R139 V_SUM_P.n24 V_SUM_P.n23 4.5005
R140 V_SUM_P.n16 V_SUM_P.n15 4.5005
R141 V_SUM_P.n7 V_SUM_P.n6 4.5005
R142 V_SUM_P.n33 V_SUM_P.n32 4.5005
R143 V_SUM_P.n51 V_SUM_P.n50 4.5005
R144 V_SUM_P.n59 V_SUM_P.n58 4.5005
R145 V_SUM_P.n67 V_SUM_P.n66 4.5005
R146 V_SUM_P.n73 V_SUM_P.n72 4.38515
R147 V_SUM_P V_SUM_P.n8 3.99827
R148 V_SUM_P.n69 V_SUM_P.n68 3.33979
R149 V_SUM_P.n39 V_SUM_P.t11 3.02006
R150 V_SUM_P.n39 V_SUM_P.t14 3.02006
R151 V_SUM_P.n21 V_SUM_P.t6 3.02006
R152 V_SUM_P.n21 V_SUM_P.t17 3.02006
R153 V_SUM_P.n13 V_SUM_P.t7 3.02006
R154 V_SUM_P.n13 V_SUM_P.t5 3.02006
R155 V_SUM_P.n2 V_SUM_P.t1 3.02006
R156 V_SUM_P.n2 V_SUM_P.t2 3.02006
R157 V_SUM_P.n28 V_SUM_P.t3 3.02006
R158 V_SUM_P.n28 V_SUM_P.t8 3.02006
R159 V_SUM_P.n46 V_SUM_P.t16 3.02006
R160 V_SUM_P.n46 V_SUM_P.t12 3.02006
R161 V_SUM_P.n54 V_SUM_P.t15 3.02006
R162 V_SUM_P.n54 V_SUM_P.t10 3.02006
R163 V_SUM_P.n64 V_SUM_P.t9 3.02006
R164 V_SUM_P.n64 V_SUM_P.t0 3.02006
R165 V_SUM_P.n71 V_SUM_P.n43 2.15656
R166 V_SUM_P.n3 V_SUM_P.n0 1.62661
R167 V_SUM_P.n29 V_SUM_P.n26 1.62661
R168 V_SUM_P.n47 V_SUM_P.n44 1.62661
R169 V_SUM_P.n55 V_SUM_P.n52 1.62661
R170 V_SUM_P.n63 V_SUM_P.n60 1.62661
R171 V_SUM_P.n38 V_SUM_P.n35 1.6266
R172 V_SUM_P.n20 V_SUM_P.n17 1.6266
R173 V_SUM_P.n12 V_SUM_P.n9 1.6266
R174 V_SUM_P.n74 V_SUM_P.n73 1.09425
R175 V_SUM_P.n34 V_SUM_P.n8 1.05407
R176 V_SUM_P.n75 V_SUM_P.n74 1.05407
R177 V_SUM_P.n70 V_SUM_P.n69 1.05407
R178 V_SUM_P.n68 V_SUM_P.n43 1.05407
R179 V_SUM_P.n71 V_SUM_P.n70 1.02148
R180 V_SUM_P.n36 V_SUM_P.n35 0.111077
R181 V_SUM_P.n18 V_SUM_P.n17 0.111077
R182 V_SUM_P.n10 V_SUM_P.n9 0.111077
R183 V_SUM_P.n5 V_SUM_P.n0 0.111077
R184 V_SUM_P.n31 V_SUM_P.n26 0.111077
R185 V_SUM_P.n49 V_SUM_P.n44 0.111077
R186 V_SUM_P.n57 V_SUM_P.n52 0.111077
R187 V_SUM_P.n61 V_SUM_P.n60 0.111077
R188 V_SUM_P.n41 V_SUM_P.n36 0.063
R189 V_SUM_P.n23 V_SUM_P.n18 0.063
R190 V_SUM_P.n15 V_SUM_P.n10 0.063
R191 V_SUM_P.n6 V_SUM_P.n5 0.063
R192 V_SUM_P.n32 V_SUM_P.n31 0.063
R193 V_SUM_P.n50 V_SUM_P.n49 0.063
R194 V_SUM_P.n58 V_SUM_P.n57 0.063
R195 V_SUM_P.n66 V_SUM_P.n61 0.063
R196 V_SUM_P.n43 V_SUM_P.n42 0.0197308
R197 V_SUM_P.n74 V_SUM_P.n24 0.0197308
R198 V_SUM_P.n75 V_SUM_P.n16 0.0197308
R199 V_SUM_P.n8 V_SUM_P.n7 0.0197308
R200 V_SUM_P.n34 V_SUM_P.n33 0.0197308
R201 V_SUM_P.n70 V_SUM_P.n51 0.0197308
R202 V_SUM_P.n69 V_SUM_P.n59 0.0197308
R203 V_SUM_P.n68 V_SUM_P.n67 0.0197308
R204 VSS.n755 VSS.n320 79932.2
R205 VSS.n817 VSS.n755 25332.4
R206 VSS.n755 VSS.n754 19960
R207 VSS.n736 VSS.n344 1297.88
R208 VSS.n696 VSS.n390 1297.88
R209 VSS.n510 VSS.n343 1297.88
R210 VSS.n674 VSS.n399 1297.88
R211 VSS.n858 VSS.n17 1297.88
R212 VSS.n22 VSS.n13 1297.88
R213 VSS.n159 VSS.n55 1297.88
R214 VSS.n316 VSS.n57 1297.88
R215 VSS.n168 VSS.n167 1199.38
R216 VSS.n259 VSS.n102 1199.38
R217 VSS.n174 VSS.n165 1199.38
R218 VSS.n251 VSS.n100 1199.38
R219 VSS.n728 VSS.n356 1199.38
R220 VSS.n663 VSS.n385 1199.38
R221 VSS.n429 VSS.n354 1199.38
R222 VSS.n671 VSS.n403 1199.38
R223 VSS.n832 VSS.n24 1083.5
R224 VSS.n819 VSS.n36 1083.5
R225 VSS.n782 VSS.n23 1083.5
R226 VSS.n41 VSS.n37 1083.5
R227 VSS.n210 VSS.n186 1083.5
R228 VSS.n287 VSS.n77 1083.5
R229 VSS.n212 VSS.n137 1083.5
R230 VSS.n269 VSS.n92 1083.5
R231 VSS.n442 VSS.n441 1083.5
R232 VSS.n595 VSS.n593 1083.5
R233 VSS.n460 VSS.n422 1083.5
R234 VSS.n612 VSS.n584 1083.5
R235 VSS.n752 VSS.n328 1083.5
R236 VSS.n558 VSS.n339 1083.5
R237 VSS.n537 VSS.n326 1083.5
R238 VSS.n575 VSS.n342 1083.5
R239 VSS.n558 VSS.n557 585
R240 VSS.n561 VSS.n560 585
R241 VSS.n562 VSS.n556 585
R242 VSS.n556 VSS.n349 585
R243 VSS.n564 VSS.n563 585
R244 VSS.n566 VSS.n555 585
R245 VSS.n569 VSS.n568 585
R246 VSS.n570 VSS.n554 585
R247 VSS.n572 VSS.n571 585
R248 VSS.n574 VSS.n553 585
R249 VSS.n576 VSS.n575 585
R250 VSS.n575 VSS.n349 585
R251 VSS.n577 VSS.n342 585
R252 VSS.n738 VSS.n342 585
R253 VSS.n552 VSS.n341 585
R254 VSS.n739 VSS.n341 585
R255 VSS.n550 VSS.n549 585
R256 VSS.n549 VSS.n336 585
R257 VSS.n548 VSS.n335 585
R258 VSS.n745 VSS.n335 585
R259 VSS.n466 VSS.n334 585
R260 VSS.n746 VSS.n334 585
R261 VSS.n543 VSS.n333 585
R262 VSS.n747 VSS.n333 585
R263 VSS.n542 VSS.n541 585
R264 VSS.n541 VSS.n327 585
R265 VSS.n539 VSS.n326 585
R266 VSS.n753 VSS.n326 585
R267 VSS.n538 VSS.n537 585
R268 VSS.n536 VSS.n535 585
R269 VSS.n534 VSS.n533 585
R270 VSS.n532 VSS.n531 585
R271 VSS.n530 VSS.n529 585
R272 VSS.n528 VSS.n527 585
R273 VSS.n526 VSS.n525 585
R274 VSS.n524 VSS.n523 585
R275 VSS.n522 VSS.n521 585
R276 VSS.n330 VSS.n328 585
R277 VSS.n752 VSS.n751 585
R278 VSS.n753 VSS.n752 585
R279 VSS.n750 VSS.n329 585
R280 VSS.n329 VSS.n327 585
R281 VSS.n749 VSS.n748 585
R282 VSS.n748 VSS.n747 585
R283 VSS.n332 VSS.n331 585
R284 VSS.n746 VSS.n332 585
R285 VSS.n744 VSS.n743 585
R286 VSS.n745 VSS.n744 585
R287 VSS.n742 VSS.n337 585
R288 VSS.n337 VSS.n336 585
R289 VSS.n741 VSS.n740 585
R290 VSS.n740 VSS.n739 585
R291 VSS.n339 VSS.n338 585
R292 VSS.n738 VSS.n339 585
R293 VSS.n596 VSS.n595 585
R294 VSS.n597 VSS.n589 585
R295 VSS.n599 VSS.n598 585
R296 VSS.n601 VSS.n588 585
R297 VSS.n604 VSS.n603 585
R298 VSS.n605 VSS.n587 585
R299 VSS.n607 VSS.n606 585
R300 VSS.n609 VSS.n586 585
R301 VSS.n610 VSS.n585 585
R302 VSS.n613 VSS.n612 585
R303 VSS.n614 VSS.n584 585
R304 VSS.n584 VSS.n402 585
R305 VSS.n619 VSS.n618 585
R306 VSS.n619 VSS.n386 585
R307 VSS.n621 VSS.n620 585
R308 VSS.n620 VSS.n406 585
R309 VSS.n622 VSS.n379 585
R310 VSS.n709 VSS.n379 585
R311 VSS.n582 VSS.n414 585
R312 VSS.n648 VSS.n414 585
R313 VSS.n464 VSS.n372 585
R314 VSS.n715 VSS.n372 585
R315 VSS.n628 VSS.n627 585
R316 VSS.n634 VSS.n628 585
R317 VSS.n462 VSS.n422 585
R318 VSS.n422 VSS.n420 585
R319 VSS.n461 VSS.n460 585
R320 VSS.n424 VSS.n423 585
R321 VSS.n456 VSS.n455 585
R322 VSS.n454 VSS.n439 585
R323 VSS.n453 VSS.n452 585
R324 VSS.n451 VSS.n450 585
R325 VSS.n449 VSS.n448 585
R326 VSS.n447 VSS.n446 585
R327 VSS.n445 VSS.n444 585
R328 VSS.n443 VSS.n442 585
R329 VSS.n441 VSS.n440 585
R330 VSS.n441 VSS.n420 585
R331 VSS.n375 VSS.n373 585
R332 VSS.n634 VSS.n373 585
R333 VSS.n714 VSS.n713 585
R334 VSS.n715 VSS.n714 585
R335 VSS.n712 VSS.n374 585
R336 VSS.n648 VSS.n374 585
R337 VSS.n711 VSS.n710 585
R338 VSS.n710 VSS.n709 585
R339 VSS.n377 VSS.n376 585
R340 VSS.n406 VSS.n377 585
R341 VSS.n592 VSS.n591 585
R342 VSS.n592 VSS.n386 585
R343 VSS.n593 VSS.n590 585
R344 VSS.n593 VSS.n402 585
R345 VSS.n287 VSS.n286 585
R346 VSS.n285 VSS.n94 585
R347 VSS.n284 VSS.n93 585
R348 VSS.n289 VSS.n93 585
R349 VSS.n283 VSS.n282 585
R350 VSS.n281 VSS.n280 585
R351 VSS.n279 VSS.n278 585
R352 VSS.n277 VSS.n276 585
R353 VSS.n275 VSS.n274 585
R354 VSS.n273 VSS.n272 585
R355 VSS.n271 VSS.n92 585
R356 VSS.n289 VSS.n92 585
R357 VSS.n270 VSS.n269 585
R358 VSS.n269 VSS.n268 585
R359 VSS.n218 VSS.n79 585
R360 VSS.n297 VSS.n79 585
R361 VSS.n217 VSS.n126 585
R362 VSS.n237 VSS.n126 585
R363 VSS.n134 VSS.n72 585
R364 VSS.n303 VSS.n72 585
R365 VSS.n224 VSS.n223 585
R366 VSS.n225 VSS.n224 585
R367 VSS.n133 VSS.n132 585
R368 VSS.n132 VSS.n65 585
R369 VSS.n214 VSS.n213 585
R370 VSS.n213 VSS.n62 585
R371 VSS.n212 VSS.n138 585
R372 VSS.n212 VSS.n211 585
R373 VSS.n188 VSS.n137 585
R374 VSS.n190 VSS.n189 585
R375 VSS.n192 VSS.n191 585
R376 VSS.n194 VSS.n193 585
R377 VSS.n196 VSS.n195 585
R378 VSS.n198 VSS.n197 585
R379 VSS.n200 VSS.n199 585
R380 VSS.n202 VSS.n201 585
R381 VSS.n204 VSS.n203 585
R382 VSS.n205 VSS.n186 585
R383 VSS.n210 VSS.n209 585
R384 VSS.n211 VSS.n210 585
R385 VSS.n208 VSS.n187 585
R386 VSS.n187 VSS.n62 585
R387 VSS.n207 VSS.n206 585
R388 VSS.n206 VSS.n65 585
R389 VSS.n75 VSS.n73 585
R390 VSS.n225 VSS.n73 585
R391 VSS.n302 VSS.n301 585
R392 VSS.n303 VSS.n302 585
R393 VSS.n300 VSS.n74 585
R394 VSS.n237 VSS.n74 585
R395 VSS.n299 VSS.n298 585
R396 VSS.n298 VSS.n297 585
R397 VSS.n77 VSS.n76 585
R398 VSS.n268 VSS.n77 585
R399 VSS.n36 VSS.n35 585
R400 VSS.n815 VSS.n814 585
R401 VSS.n813 VSS.n756 585
R402 VSS.n817 VSS.n756 585
R403 VSS.n812 VSS.n811 585
R404 VSS.n810 VSS.n809 585
R405 VSS.n808 VSS.n807 585
R406 VSS.n806 VSS.n805 585
R407 VSS.n804 VSS.n803 585
R408 VSS.n802 VSS.n801 585
R409 VSS.n800 VSS.n41 585
R410 VSS.n817 VSS.n41 585
R411 VSS.n799 VSS.n37 585
R412 VSS.n818 VSS.n37 585
R413 VSS.n758 VSS.n757 585
R414 VSS.n757 VSS.n32 585
R415 VSS.n794 VSS.n31 585
R416 VSS.n824 VSS.n31 585
R417 VSS.n793 VSS.n30 585
R418 VSS.n825 VSS.n30 585
R419 VSS.n791 VSS.n29 585
R420 VSS.n826 VSS.n29 585
R421 VSS.n790 VSS.n789 585
R422 VSS.n789 VSS.n14 585
R423 VSS.n788 VSS.n787 585
R424 VSS.n788 VSS.n9 585
R425 VSS.n784 VSS.n23 585
R426 VSS.n833 VSS.n23 585
R427 VSS.n783 VSS.n782 585
R428 VSS.n780 VSS.n761 585
R429 VSS.n779 VSS.n778 585
R430 VSS.n777 VSS.n776 585
R431 VSS.n775 VSS.n763 585
R432 VSS.n773 VSS.n772 585
R433 VSS.n771 VSS.n764 585
R434 VSS.n770 VSS.n769 585
R435 VSS.n767 VSS.n765 585
R436 VSS.n26 VSS.n24 585
R437 VSS.n832 VSS.n831 585
R438 VSS.n833 VSS.n832 585
R439 VSS.n830 VSS.n25 585
R440 VSS.n25 VSS.n9 585
R441 VSS.n829 VSS.n828 585
R442 VSS.n828 VSS.n14 585
R443 VSS.n827 VSS.n27 585
R444 VSS.n827 VSS.n826 585
R445 VSS.n34 VSS.n28 585
R446 VSS.n825 VSS.n28 585
R447 VSS.n823 VSS.n822 585
R448 VSS.n824 VSS.n823 585
R449 VSS.n821 VSS.n33 585
R450 VSS.n33 VSS.n32 585
R451 VSS.n820 VSS.n819 585
R452 VSS.n819 VSS.n818 585
R453 VSS.n663 VSS.n662 585
R454 VSS.n665 VSS.n661 585
R455 VSS.n668 VSS.n667 585
R456 VSS.n669 VSS.n403 585
R457 VSS.n671 VSS.n670 585
R458 VSS.n672 VSS.n671 585
R459 VSS.n660 VSS.n387 585
R460 VSS.n702 VSS.n387 585
R461 VSS.n659 VSS.n658 585
R462 VSS.n658 VSS.n657 585
R463 VSS.n404 VSS.n380 585
R464 VSS.n708 VSS.n380 585
R465 VSS.n646 VSS.n645 585
R466 VSS.n647 VSS.n646 585
R467 VSS.n643 VSS.n415 585
R468 VSS.n415 VSS.t26 585
R469 VSS.n419 VSS.n416 585
R470 VSS.n633 VSS.n419 585
R471 VSS.n638 VSS.n637 585
R472 VSS.n637 VSS.n636 585
R473 VSS.n418 VSS.n362 585
R474 VSS.n723 VSS.n362 585
R475 VSS.n434 VSS.n433 585
R476 VSS.n435 VSS.n434 585
R477 VSS.n431 VSS.n354 585
R478 VSS.n729 VSS.n354 585
R479 VSS.n430 VSS.n429 585
R480 VSS.n428 VSS.n427 585
R481 VSS.n426 VSS.n425 585
R482 VSS.n358 VSS.n356 585
R483 VSS.n728 VSS.n727 585
R484 VSS.n729 VSS.n728 585
R485 VSS.n726 VSS.n357 585
R486 VSS.n435 VSS.n357 585
R487 VSS.n725 VSS.n724 585
R488 VSS.n724 VSS.n723 585
R489 VSS.n360 VSS.n359 585
R490 VSS.n636 VSS.n360 585
R491 VSS.n632 VSS.n631 585
R492 VSS.n633 VSS.n632 585
R493 VSS.n630 VSS.n629 585
R494 VSS.n629 VSS.t26 585
R495 VSS.n383 VSS.n381 585
R496 VSS.n647 VSS.n381 585
R497 VSS.n707 VSS.n706 585
R498 VSS.n708 VSS.n707 585
R499 VSS.n705 VSS.n382 585
R500 VSS.n657 VSS.n382 585
R501 VSS.n704 VSS.n703 585
R502 VSS.n703 VSS.n702 585
R503 VSS.n385 VSS.n384 585
R504 VSS.n672 VSS.n385 585
R505 VSS.n257 VSS.n102 585
R506 VSS.n256 VSS.n255 585
R507 VSS.n111 VSS.n110 585
R508 VSS.n251 VSS.n250 585
R509 VSS.n249 VSS.n100 585
R510 VSS.n260 VSS.n100 585
R511 VSS.n248 VSS.n247 585
R512 VSS.n247 VSS.n99 585
R513 VSS.n246 VSS.n245 585
R514 VSS.n246 VSS.n87 585
R515 VSS.n122 VSS.n121 585
R516 VSS.n121 VSS.n81 585
R517 VSS.n240 VSS.n239 585
R518 VSS.n239 VSS.n78 585
R519 VSS.n238 VSS.n124 585
R520 VSS.n238 VSS.t25 585
R521 VSS.n177 VSS.n71 585
R522 VSS.n304 VSS.n71 585
R523 VSS.n180 VSS.n179 585
R524 VSS.n179 VSS.n131 585
R525 VSS.n181 VSS.n64 585
R526 VSS.n310 VSS.n64 585
R527 VSS.n183 VSS.n182 585
R528 VSS.n184 VSS.n183 585
R529 VSS.n176 VSS.n165 585
R530 VSS.n165 VSS.n56 585
R531 VSS.n175 VSS.n174 585
R532 VSS.n173 VSS.n172 585
R533 VSS.n171 VSS.n170 585
R534 VSS.n169 VSS.n168 585
R535 VSS.n167 VSS.n166 585
R536 VSS.n167 VSS.n56 585
R537 VSS.n68 VSS.n66 585
R538 VSS.n184 VSS.n66 585
R539 VSS.n309 VSS.n308 585
R540 VSS.n310 VSS.n309 585
R541 VSS.n307 VSS.n67 585
R542 VSS.n131 VSS.n67 585
R543 VSS.n306 VSS.n305 585
R544 VSS.n305 VSS.n304 585
R545 VSS.n70 VSS.n69 585
R546 VSS.t25 VSS.n70 585
R547 VSS.n105 VSS.n104 585
R548 VSS.n105 VSS.n78 585
R549 VSS.n106 VSS.n103 585
R550 VSS.n106 VSS.n81 585
R551 VSS.n108 VSS.n107 585
R552 VSS.n107 VSS.n87 585
R553 VSS.n109 VSS.n101 585
R554 VSS.n101 VSS.n99 585
R555 VSS.n259 VSS.n258 585
R556 VSS.n260 VSS.n259 585
R557 VSS.n697 VSS.n696 585
R558 VSS.n393 VSS.n392 585
R559 VSS.n693 VSS.n692 585
R560 VSS.n694 VSS.n693 585
R561 VSS.n691 VSS.n400 585
R562 VSS.n690 VSS.n689 585
R563 VSS.n688 VSS.n687 585
R564 VSS.n686 VSS.n685 585
R565 VSS.n684 VSS.n683 585
R566 VSS.n682 VSS.n681 585
R567 VSS.n680 VSS.n679 585
R568 VSS.n678 VSS.n677 585
R569 VSS.n676 VSS.n399 585
R570 VSS.n694 VSS.n399 585
R571 VSS.n675 VSS.n674 585