* NGSPICE file created from FDDA_CMFB.ext - technology: sky130A

.subckt FDDA_CMFB_PEX V_B2 VDD VSS V_B4 V_B3 V_B1 V_PP V_PN V_NP V_NN V_OP VCM V_ON
X0 V_PA.t30 V_OP.t2 V_PAD.t13 VSS.t19 sky130_fd_pr__nfet_01v8 ad=0.1914 pd=1.61 as=0.1914 ps=1.61 w=1.32 l=0.2
X1 V_PA.t40 VCM.t0 V_CMFB.t22 VSS.t27 sky130_fd_pr__nfet_01v8 ad=0.1914 pd=1.61 as=0.1914 ps=1.61 w=1.32 l=0.2
X2 V_CMFB.t21 VCM.t1 V_PA.t32 VSS.t26 sky130_fd_pr__nfet_01v8 ad=0.1914 pd=1.61 as=0.1914 ps=1.61 w=1.32 l=0.2
X3 V_PAD.t15 V_OP.t3 V_PA.t29 VSS.t12 sky130_fd_pr__nfet_01v8 ad=0.1914 pd=1.61 as=0.1914 ps=1.61 w=1.32 l=0.2
X4 V_NA.t23 VCM.t2 V_CMFB.t24 VSS.t6 sky130_fd_pr__nfet_01v8 ad=0.1914 pd=1.61 as=0.1914 ps=1.61 w=1.32 l=0.2
X5 V_D.t56 V_NN.t0 V_SUM_P.t27 VDD.t20 sky130_fd_pr__pfet_01v8 ad=0.4466 pd=3.37 as=0.4466 ps=3.37 w=3.08 l=0.3
X6 V_NA.t41 V_ON.t2 V_NAD.t15 VSS.t44 sky130_fd_pr__nfet_01v8 ad=0.1914 pd=1.61 as=0.1914 ps=1.61 w=1.32 l=0.2
X7 V_SUM_N.t23 V_NP.t0 V_D.t9 VDD.t34 sky130_fd_pr__pfet_01v8 ad=0.4466 pd=3.37 as=0.4466 ps=3.37 w=3.08 l=0.3
X8 V_PA.t39 VCM.t3 V_CMFB.t20 VSS.t24 sky130_fd_pr__nfet_01v8 ad=0.1914 pd=1.61 as=0.1914 ps=1.61 w=1.32 l=0.2
X9 V_CMFB.t6 VCM.t4 V_NA.t22 VSS.t40 sky130_fd_pr__nfet_01v8 ad=0.1914 pd=1.61 as=0.1914 ps=1.61 w=1.32 l=0.2
X10 V_SUM_N.t22 V_NP.t1 V_D.t20 VDD.t38 sky130_fd_pr__pfet_01v8 ad=0.4466 pd=3.37 as=0.4466 ps=3.37 w=3.08 l=0.3
X11 V_D.t8 V_NP.t2 V_SUM_N.t21 VDD.t20 sky130_fd_pr__pfet_01v8 ad=0.4466 pd=3.37 as=0.4466 ps=3.37 w=3.08 l=0.3
X12 V_NAD.t14 V_ON.t3 V_NA.t2 VSS.t8 sky130_fd_pr__nfet_01v8 ad=0.1914 pd=1.61 as=0.1914 ps=1.61 w=1.32 l=0.2
X13 V_D.t57 V_NP.t3 V_SUM_N.t20 VDD.t65 sky130_fd_pr__pfet_01v8 ad=0.4466 pd=3.37 as=0.4466 ps=3.37 w=3.08 l=0.3
X14 V_SUM_N.t38 V_PN.t0 V_C.t48 VDD.t15 sky130_fd_pr__pfet_01v8 ad=0.4466 pd=3.37 as=0.4466 ps=3.37 w=3.08 l=0.3
X15 V_SUM_N.t26 V_PN.t1 V_C.t47 VDD.t13 sky130_fd_pr__pfet_01v8 ad=0.4466 pd=3.37 as=0.4466 ps=3.37 w=3.08 l=0.3
X16 V_C.t46 V_PN.t2 V_SUM_N.t37 VDD.t48 sky130_fd_pr__pfet_01v8 ad=0.4466 pd=3.37 as=0.4466 ps=3.37 w=3.08 l=0.3
X17 V_SUM_P.t25 V_NN.t1 V_D.t55 VDD.t34 sky130_fd_pr__pfet_01v8 ad=0.4466 pd=3.37 as=0.4466 ps=3.37 w=3.08 l=0.3
X18 V_PAD.t14 V_OP.t4 V_PA.t28 VSS.t4 sky130_fd_pr__nfet_01v8 ad=0.1914 pd=1.61 as=0.1914 ps=1.61 w=1.32 l=0.2
X19 V_C.t45 V_PN.t3 V_SUM_N.t29 VDD.t21 sky130_fd_pr__pfet_01v8 ad=0.4466 pd=3.37 as=0.4466 ps=3.37 w=3.08 l=0.3
X20 V_SUM_P.t46 V_NN.t2 V_D.t54 VDD.t38 sky130_fd_pr__pfet_01v8 ad=0.4466 pd=3.37 as=0.4466 ps=3.37 w=3.08 l=0.3
X21 V_CMFB.t19 VCM.t5 V_PA.t41 VSS.t33 sky130_fd_pr__nfet_01v8 ad=0.1914 pd=1.61 as=0.1914 ps=1.61 w=1.32 l=0.2
X22 V_SUM_P.t16 V_PP.t0 V_C.t24 VDD.t33 sky130_fd_pr__pfet_01v8 ad=0.4466 pd=3.37 as=0.4466 ps=3.37 w=3.08 l=0.3
X23 V_D.t53 V_NN.t3 V_SUM_P.t45 VDD.t65 sky130_fd_pr__pfet_01v8 ad=0.4466 pd=3.37 as=0.4466 ps=3.37 w=3.08 l=0.3
X24 V_SUM_P.t41 V_NN.t4 V_D.t52 VDD.t52 sky130_fd_pr__pfet_01v8 ad=0.4466 pd=3.37 as=0.4466 ps=3.37 w=3.08 l=0.3
X25 V_SUM_P.t6 V_PP.t1 V_C.t6 VDD.t15 sky130_fd_pr__pfet_01v8 ad=0.4466 pd=3.37 as=0.4466 ps=3.37 w=3.08 l=0.3
X26 V_PAD.t12 V_OP.t5 V_PA.t27 VSS.t34 sky130_fd_pr__nfet_01v8 ad=0.1914 pd=1.61 as=0.1914 ps=1.61 w=1.32 l=0.2
X27 V_SUM_P.t11 V_PP.t2 V_C.t19 VDD.t13 sky130_fd_pr__pfet_01v8 ad=0.4466 pd=3.37 as=0.4466 ps=3.37 w=3.08 l=0.3
X28 V_D.t51 V_NN.t5 V_SUM_P.t42 VDD.t53 sky130_fd_pr__pfet_01v8 ad=0.4466 pd=3.37 as=0.4466 ps=3.37 w=3.08 l=0.3
X29 V_SUM_N.t25 V_B2.t0 VSS.t2 VSS.t1 sky130_fd_pr__nfet_01v8 ad=0.5655 pd=4.48 as=0.5655 ps=4.48 w=1.95 l=2
X30 V_C.t54 V_PP.t3 V_SUM_P.t22 VDD.t48 sky130_fd_pr__pfet_01v8 ad=0.4466 pd=3.37 as=0.4466 ps=3.37 w=3.08 l=0.3
X31 VDD.t59 V_B1.t0 V_C.t57 VDD.t58 sky130_fd_pr__pfet_01v8 ad=1.4848 pd=10.82 as=1.4848 ps=10.82 w=5.12 l=1
X32 V_C.t20 V_PP.t4 V_SUM_P.t12 VDD.t21 sky130_fd_pr__pfet_01v8 ad=0.4466 pd=3.37 as=0.4466 ps=3.37 w=3.08 l=0.3
X33 V_SUM_N.t19 V_NP.t4 V_D.t58 VDD.t64 sky130_fd_pr__pfet_01v8 ad=0.4466 pd=3.37 as=0.4466 ps=3.37 w=3.08 l=0.3
X34 V_PA.t14 V_PA.t12 V_PA.t13 VSS.t23 sky130_fd_pr__nfet_01v8 ad=0.3828 pd=3.22 as=0 ps=0 w=1.32 l=0.2
X35 V_SUM_N.t36 V_PN.t4 V_C.t44 VDD.t33 sky130_fd_pr__pfet_01v8 ad=0.4466 pd=3.37 as=0.4466 ps=3.37 w=3.08 l=0.3
X36 V_C.t51 V_PP.t5 V_SUM_P.t19 VDD.t42 sky130_fd_pr__pfet_01v8 ad=0.4466 pd=3.37 as=0.4466 ps=3.37 w=3.08 l=0.3
X37 V_SUM_N.t18 V_NP.t5 V_D.t27 VDD.t52 sky130_fd_pr__pfet_01v8 ad=0.4466 pd=3.37 as=0.4466 ps=3.37 w=3.08 l=0.3
X38 VDD.t31 V_CMFB.t32 V_CMFB.t33 VDD.t30 sky130_fd_pr__pfet_01v8 ad=1.2325 pd=9.08 as=1.2325 ps=9.08 w=4.25 l=0.8
X39 V_D.t6 V_NP.t6 V_SUM_N.t17 VDD.t16 sky130_fd_pr__pfet_01v8 ad=0.4466 pd=3.37 as=0.4466 ps=3.37 w=3.08 l=0.3
X40 V_NA.t21 VCM.t6 V_CMFB.t3 VSS.t45 sky130_fd_pr__nfet_01v8 ad=0.1914 pd=1.61 as=0.1914 ps=1.61 w=1.32 l=0.2
X41 V_SUM_N.t24 V_PN.t5 V_C.t43 VDD.t3 sky130_fd_pr__pfet_01v8 ad=0.4466 pd=3.37 as=0.4466 ps=3.37 w=3.08 l=0.3
X42 V_D.t28 V_NP.t7 V_SUM_N.t16 VDD.t53 sky130_fd_pr__pfet_01v8 ad=0.4466 pd=3.37 as=0.4466 ps=3.37 w=3.08 l=0.3
X43 V_NA.t1 V_ON.t4 V_NAD.t13 VSS.t6 sky130_fd_pr__nfet_01v8 ad=0.1914 pd=1.61 as=0.1914 ps=1.61 w=1.32 l=0.2
X44 V_NA.t37 V_ON.t5 V_NAD.t12 VSS.t16 sky130_fd_pr__nfet_01v8 ad=0.1914 pd=1.61 as=0.1914 ps=1.61 w=1.32 l=0.2
X45 V_NA.t20 VCM.t7 V_CMFB.t25 VSS.t44 sky130_fd_pr__nfet_01v8 ad=0.1914 pd=1.61 as=0.1914 ps=1.61 w=1.32 l=0.2
X46 V_SUM_P.t39 V_NN.t6 V_D.t50 VDD.t64 sky130_fd_pr__pfet_01v8 ad=0.4466 pd=3.37 as=0.4466 ps=3.37 w=3.08 l=0.3
X47 V_SUM_P.t32 V_NN.t7 V_D.t49 VDD.t8 sky130_fd_pr__pfet_01v8 ad=0.4466 pd=3.37 as=0.4466 ps=3.37 w=3.08 l=0.3
X48 V_C.t42 V_PN.t6 V_SUM_N.t40 VDD.t42 sky130_fd_pr__pfet_01v8 ad=0.4466 pd=3.37 as=0.4466 ps=3.37 w=3.08 l=0.3
X49 V_C.t41 V_PN.t7 V_SUM_N.t27 VDD.t18 sky130_fd_pr__pfet_01v8 ad=0.4466 pd=3.37 as=0.4466 ps=3.37 w=3.08 l=0.3
X50 V_D.t32 V_B1.t1 VDD.t62 VDD.t61 sky130_fd_pr__pfet_01v8 ad=1.4848 pd=10.82 as=1.4848 ps=10.82 w=5.12 l=1
X51 V_D.t48 V_NN.t8 V_SUM_P.t33 VDD.t16 sky130_fd_pr__pfet_01v8 ad=0.4466 pd=3.37 as=0.4466 ps=3.37 w=3.08 l=0.3
X52 V_CMFB.t28 VCM.t8 V_NA.t19 VSS.t0 sky130_fd_pr__nfet_01v8 ad=0.1914 pd=1.61 as=0.1914 ps=1.61 w=1.32 l=0.2
X53 V_NAD.t11 V_ON.t6 V_NA.t36 VSS.t40 sky130_fd_pr__nfet_01v8 ad=0.1914 pd=1.61 as=0.1914 ps=1.61 w=1.32 l=0.2
X54 V_SUM_P.t15 V_PP.t6 V_C.t23 VDD.t3 sky130_fd_pr__pfet_01v8 ad=0.4466 pd=3.37 as=0.4466 ps=3.37 w=3.08 l=0.3
X55 V_NAD.t10 V_ON.t7 V_NA.t38 VSS.t41 sky130_fd_pr__nfet_01v8 ad=0.1914 pd=1.61 as=0.1914 ps=1.61 w=1.32 l=0.2
X56 V_CMFB.t1 VCM.t9 V_NA.t18 VSS.t8 sky130_fd_pr__nfet_01v8 ad=0.1914 pd=1.61 as=0.1914 ps=1.61 w=1.32 l=0.2
X57 V_SUM_N.t15 V_NP.t8 V_D.t5 VDD.t8 sky130_fd_pr__pfet_01v8 ad=0.4466 pd=3.37 as=0.4466 ps=3.37 w=3.08 l=0.3
X58 V_C.t58 V_PP.t7 V_SUM_P.t49 VDD.t18 sky130_fd_pr__pfet_01v8 ad=0.4466 pd=3.37 as=0.4466 ps=3.37 w=3.08 l=0.3
X59 V_CMFB.t18 VCM.t10 V_PA.t0 VSS.t4 sky130_fd_pr__nfet_01v8 ad=0.1914 pd=1.61 as=0.1914 ps=1.61 w=1.32 l=0.2
X60 V_CMFB.t17 VCM.t11 V_PA.t34 VSS.t31 sky130_fd_pr__nfet_01v8 ad=0.1914 pd=1.61 as=0.1914 ps=1.61 w=1.32 l=0.2
X61 V_C.t5 V_PP.t8 V_SUM_P.t5 VDD.t14 sky130_fd_pr__pfet_01v8 ad=0.4466 pd=3.37 as=0.4466 ps=3.37 w=3.08 l=0.3
X62 V_PAD.t11 V_OP.t6 V_PA.t26 VSS.t33 sky130_fd_pr__nfet_01v8 ad=0.1914 pd=1.61 as=0.1914 ps=1.61 w=1.32 l=0.2
X63 V_PAD.t8 V_OP.t7 V_PA.t25 VSS.t32 sky130_fd_pr__nfet_01v8 ad=0.1914 pd=1.61 as=0.1914 ps=1.61 w=1.32 l=0.2
X64 V_C.t16 V_C.t15 V_C.t16 VDD.t19 sky130_fd_pr__pfet_01v8 ad=0.4466 pd=3.37 as=0 ps=0 w=3.08 l=0.3
X65 V_CMFB.t16 VCM.t12 V_PA.t36 VSS.t34 sky130_fd_pr__nfet_01v8 ad=0.1914 pd=1.61 as=0.1914 ps=1.61 w=1.32 l=0.2
X66 V_PA.t24 V_OP.t8 V_PAD.t7 VSS.t18 sky130_fd_pr__nfet_01v8 ad=0.1914 pd=1.61 as=0.1914 ps=1.61 w=1.32 l=0.2
X67 V_PA.t11 V_PA.t9 V_PA.t10 VSS.t23 sky130_fd_pr__nfet_01v8 ad=0.3828 pd=3.22 as=0 ps=0 w=1.32 l=0.2
X68 V_C.t40 V_PN.t8 V_SUM_N.t48 VDD.t14 sky130_fd_pr__pfet_01v8 ad=0.4466 pd=3.37 as=0.4466 ps=3.37 w=3.08 l=0.3
X69 V_PA.t33 VCM.t13 V_CMFB.t15 VSS.t30 sky130_fd_pr__nfet_01v8 ad=0.1914 pd=1.61 as=0.1914 ps=1.61 w=1.32 l=0.2
X70 V_SUM_P.t48 V_NN.t9 V_D.t47 VDD.t44 sky130_fd_pr__pfet_01v8 ad=0.4466 pd=3.37 as=0.4466 ps=3.37 w=3.08 l=0.3
X71 V_C.t14 V_C.t13 V_C.t14 VDD.t19 sky130_fd_pr__pfet_01v8 ad=0.4466 pd=3.37 as=0 ps=0 w=3.08 l=0.3
X72 V_NA.t42 V_ON.t8 V_NAD.t9 VSS.t45 sky130_fd_pr__nfet_01v8 ad=0.1914 pd=1.61 as=0.1914 ps=1.61 w=1.32 l=0.2
X73 V_SUM_P.t4 V_PP.t9 V_C.t4 VDD.t12 sky130_fd_pr__pfet_01v8 ad=0.4466 pd=3.37 as=0.4466 ps=3.37 w=3.08 l=0.3
X74 V_D.t46 V_NN.t10 V_SUM_P.t38 VDD.t56 sky130_fd_pr__pfet_01v8 ad=0.4466 pd=3.37 as=0.4466 ps=3.37 w=3.08 l=0.3
X75 V_SUM_P.t0 V_PP.t10 V_C.t0 VDD.t4 sky130_fd_pr__pfet_01v8 ad=0.4466 pd=3.37 as=0.4466 ps=3.37 w=3.08 l=0.3
X76 V_NA.t17 VCM.t14 V_CMFB.t0 VSS.t16 sky130_fd_pr__nfet_01v8 ad=0.1914 pd=1.61 as=0.1914 ps=1.61 w=1.32 l=0.2
X77 VDD.t67 V_NAD.t16 V_NAD.t17 VDD.t66 sky130_fd_pr__pfet_01v8 ad=0.6177 pd=4.84 as=0.6177 ps=4.84 w=2.13 l=0.8
X78 V_C.t3 V_PP.t11 V_SUM_P.t3 VDD.t11 sky130_fd_pr__pfet_01v8 ad=0.4466 pd=3.37 as=0.4466 ps=3.37 w=3.08 l=0.3
X79 V_C.t18 V_PP.t12 V_SUM_P.t10 VDD.t24 sky130_fd_pr__pfet_01v8 ad=0.4466 pd=3.37 as=0.4466 ps=3.37 w=3.08 l=0.3
X80 V_SUM_N.t14 V_NP.t9 V_D.t21 VDD.t44 sky130_fd_pr__pfet_01v8 ad=0.4466 pd=3.37 as=0.4466 ps=3.37 w=3.08 l=0.3
X81 V_SUM_N.t47 V_PN.t9 V_C.t39 VDD.t43 sky130_fd_pr__pfet_01v8 ad=0.4466 pd=3.37 as=0.4466 ps=3.37 w=3.08 l=0.3
X82 V_NAD.t8 V_ON.t9 V_NA.t0 VSS.t0 sky130_fd_pr__nfet_01v8 ad=0.1914 pd=1.61 as=0.1914 ps=1.61 w=1.32 l=0.2
X83 V_SUM_N.t46 V_PN.t10 V_C.t38 VDD.t12 sky130_fd_pr__pfet_01v8 ad=0.4466 pd=3.37 as=0.4466 ps=3.37 w=3.08 l=0.3
X84 V_D.t30 V_NP.t10 V_SUM_N.t13 VDD.t56 sky130_fd_pr__pfet_01v8 ad=0.4466 pd=3.37 as=0.4466 ps=3.37 w=3.08 l=0.3
X85 V_SUM_N.t39 V_PN.t11 V_C.t37 VDD.t4 sky130_fd_pr__pfet_01v8 ad=0.4466 pd=3.37 as=0.4466 ps=3.37 w=3.08 l=0.3
X86 V_SUM_N.t30 V_PN.t12 V_C.t36 VDD.t22 sky130_fd_pr__pfet_01v8 ad=0.4466 pd=3.37 as=0.4466 ps=3.37 w=3.08 l=0.3
X87 V_CMFB.t2 VCM.t15 V_NA.t16 VSS.t41 sky130_fd_pr__nfet_01v8 ad=0.1914 pd=1.61 as=0.1914 ps=1.61 w=1.32 l=0.2
X88 V_PA.t2 VCM.t16 V_CMFB.t14 VSS.t17 sky130_fd_pr__nfet_01v8 ad=0.1914 pd=1.61 as=0.1914 ps=1.61 w=1.32 l=0.2
X89 V_D.t4 V_NP.t11 V_SUM_N.t12 VDD.t7 sky130_fd_pr__pfet_01v8 ad=0.4466 pd=3.37 as=0.4466 ps=3.37 w=3.08 l=0.3
X90 V_C.t35 V_PN.t13 V_SUM_N.t33 VDD.t11 sky130_fd_pr__pfet_01v8 ad=0.4466 pd=3.37 as=0.4466 ps=3.37 w=3.08 l=0.3
X91 V_C.t34 V_PN.t14 V_SUM_N.t34 VDD.t24 sky130_fd_pr__pfet_01v8 ad=0.4466 pd=3.37 as=0.4466 ps=3.37 w=3.08 l=0.3
X92 VSS.t36 V_B2.t1 V_PA.t31 VSS.t35 sky130_fd_pr__nfet_01v8 ad=0.5655 pd=4.48 as=0.5655 ps=4.48 w=1.95 l=2
X93 V_SUM_P.t31 V_NN.t11 V_D.t45 VDD.t6 sky130_fd_pr__pfet_01v8 ad=0.4466 pd=3.37 as=0.4466 ps=3.37 w=3.08 l=0.3
X94 V_SUM_P.t20 V_PP.t13 V_C.t52 VDD.t43 sky130_fd_pr__pfet_01v8 ad=0.4466 pd=3.37 as=0.4466 ps=3.37 w=3.08 l=0.3
X95 V_PAD.t3 V_OP.t9 V_PA.t23 VSS.t31 sky130_fd_pr__nfet_01v8 ad=0.1914 pd=1.61 as=0.1914 ps=1.61 w=1.32 l=0.2
X96 V_SUM_P.t17 V_PP.t14 V_C.t49 VDD.t22 sky130_fd_pr__pfet_01v8 ad=0.4466 pd=3.37 as=0.4466 ps=3.37 w=3.08 l=0.3
X97 V_CMFB.t13 VCM.t17 V_PA.t35 VSS.t32 sky130_fd_pr__nfet_01v8 ad=0.1914 pd=1.61 as=0.1914 ps=1.61 w=1.32 l=0.2
X98 V_D.t44 V_NN.t12 V_SUM_P.t30 VDD.t51 sky130_fd_pr__pfet_01v8 ad=0.4466 pd=3.37 as=0.4466 ps=3.37 w=3.08 l=0.3
X99 V_D.t43 V_NN.t13 V_SUM_P.t34 VDD.t7 sky130_fd_pr__pfet_01v8 ad=0.4466 pd=3.37 as=0.4466 ps=3.37 w=3.08 l=0.3
X100 V_D.t42 V_NN.t14 V_SUM_P.t40 VDD.t49 sky130_fd_pr__pfet_01v8 ad=0.4466 pd=3.37 as=0.4466 ps=3.37 w=3.08 l=0.3
X101 V_SUM_N.t11 V_NP.t12 V_D.t3 VDD.t6 sky130_fd_pr__pfet_01v8 ad=0.4466 pd=3.37 as=0.4466 ps=3.37 w=3.08 l=0.3
X102 V_SUM_N.t10 V_NP.t13 V_D.t7 VDD.t17 sky130_fd_pr__pfet_01v8 ad=0.4466 pd=3.37 as=0.4466 ps=3.37 w=3.08 l=0.3
X103 V_C.t12 V_C.t10 V_C.t11 VDD.t5 sky130_fd_pr__pfet_01v8 ad=0.8932 pd=6.74 as=0 ps=0 w=3.08 l=0.3
X104 V_PA.t3 VCM.t18 V_CMFB.t12 VSS.t18 sky130_fd_pr__nfet_01v8 ad=0.1914 pd=1.61 as=0.1914 ps=1.61 w=1.32 l=0.2
X105 VDD.t29 V_CMFB.t34 V_NE.t0 VDD.t28 sky130_fd_pr__pfet_01v8 ad=0.261 pd=2.38 as=0.261 ps=2.38 w=0.9 l=0.8
X106 V_D.t26 V_NP.t14 V_SUM_N.t9 VDD.t51 sky130_fd_pr__pfet_01v8 ad=0.4466 pd=3.37 as=0.4466 ps=3.37 w=3.08 l=0.3
X107 V_PA.t22 V_OP.t10 V_PAD.t2 VSS.t30 sky130_fd_pr__nfet_01v8 ad=0.1914 pd=1.61 as=0.1914 ps=1.61 w=1.32 l=0.2
X108 V_CMFB.t30 VCM.t19 V_NA.t15 VSS.t42 sky130_fd_pr__nfet_01v8 ad=0.1914 pd=1.61 as=0.1914 ps=1.61 w=1.32 l=0.2
X109 V_SUM_N.t43 V_PN.t15 V_C.t33 VDD.t47 sky130_fd_pr__pfet_01v8 ad=0.4466 pd=3.37 as=0.4466 ps=3.37 w=3.08 l=0.3
X110 V_D.t24 V_NP.t15 V_SUM_N.t8 VDD.t49 sky130_fd_pr__pfet_01v8 ad=0.4466 pd=3.37 as=0.4466 ps=3.37 w=3.08 l=0.3
X111 V_NAD.t7 V_ON.t10 V_NA.t39 VSS.t43 sky130_fd_pr__nfet_01v8 ad=0.1914 pd=1.61 as=0.1914 ps=1.61 w=1.32 l=0.2
X112 V_C.t32 V_PN.t16 V_SUM_N.t44 VDD.t54 sky130_fd_pr__pfet_01v8 ad=0.4466 pd=3.37 as=0.4466 ps=3.37 w=3.08 l=0.3
X113 V_SUM_P.t44 V_NN.t15 V_D.t41 VDD.t17 sky130_fd_pr__pfet_01v8 ad=0.4466 pd=3.37 as=0.4466 ps=3.37 w=3.08 l=0.3
X114 V_C.t9 V_C.t7 V_C.t8 VDD.t5 sky130_fd_pr__pfet_01v8 ad=0.8932 pd=6.74 as=0 ps=0 w=3.08 l=0.3
X115 V_CMFB.t26 VCM.t20 V_NA.t14 VSS.t5 sky130_fd_pr__nfet_01v8 ad=0.1914 pd=1.61 as=0.1914 ps=1.61 w=1.32 l=0.2
X116 V_NA.t35 V_NA.t33 V_NA.t34 VSS.t3 sky130_fd_pr__nfet_01v8 ad=0.3828 pd=3.22 as=0 ps=0 w=1.32 l=0.2
X117 V_PA.t8 V_PA.t7 V_PA.t8 VSS.t22 sky130_fd_pr__nfet_01v8 ad=0.1914 pd=1.61 as=0 ps=0 w=1.32 l=0.2
X118 V_ON.t1 V_B4.t0 V_NE.t1 VDD.t63 sky130_fd_pr__pfet_01v8 ad=0.1798 pd=1.82 as=0.1798 ps=1.82 w=0.62 l=0.8
X119 V_SUM_P.t21 V_PP.t15 V_C.t53 VDD.t47 sky130_fd_pr__pfet_01v8 ad=0.4466 pd=3.37 as=0.4466 ps=3.37 w=3.08 l=0.3
X120 V_NA.t13 VCM.t21 V_CMFB.t29 VSS.t9 sky130_fd_pr__nfet_01v8 ad=0.1914 pd=1.61 as=0.1914 ps=1.61 w=1.32 l=0.2
X121 V_SUM_P.t8 V_B3.t0 V_ON.t0 VSS.t21 sky130_fd_pr__nfet_01v8 ad=0.2175 pd=2.08 as=0.2175 ps=2.08 w=0.75 l=3
X122 V_C.t56 V_PP.t16 V_SUM_P.t24 VDD.t54 sky130_fd_pr__pfet_01v8 ad=0.4466 pd=3.37 as=0.4466 ps=3.37 w=3.08 l=0.3
X123 V_PA.t21 V_OP.t11 V_PAD.t1 VSS.t17 sky130_fd_pr__nfet_01v8 ad=0.1914 pd=1.61 as=0.1914 ps=1.61 w=1.32 l=0.2
X124 V_PA.t20 V_OP.t12 V_PAD.t0 VSS.t29 sky130_fd_pr__nfet_01v8 ad=0.1914 pd=1.61 as=0.1914 ps=1.61 w=1.32 l=0.2
X125 V_D.t19 V_D.t17 V_D.t18 VDD.t37 sky130_fd_pr__pfet_01v8 ad=0.8932 pd=6.74 as=0 ps=0 w=3.08 l=0.3
X126 V_PA.t42 VCM.t22 V_CMFB.t11 VSS.t28 sky130_fd_pr__nfet_01v8 ad=0.1914 pd=1.61 as=0.1914 ps=1.61 w=1.32 l=0.2
X127 V_PAD.t17 V_PAD.t16 VDD.t40 VDD.t39 sky130_fd_pr__pfet_01v8 ad=0.6177 pd=4.84 as=0.6177 ps=4.84 w=2.13 l=0.8
X128 V_D.t16 V_D.t14 V_D.t15 VDD.t37 sky130_fd_pr__pfet_01v8 ad=0.8932 pd=6.74 as=0 ps=0 w=3.08 l=0.3
X129 V_CMFB.t10 VCM.t23 V_PA.t37 VSS.t25 sky130_fd_pr__nfet_01v8 ad=0.1914 pd=1.61 as=0.1914 ps=1.61 w=1.32 l=0.2
X130 V_C.t31 V_PN.t17 V_SUM_N.t45 VDD.t10 sky130_fd_pr__pfet_01v8 ad=0.4466 pd=3.37 as=0.4466 ps=3.37 w=3.08 l=0.3
X131 V_NAD.t6 V_ON.t11 V_NA.t40 VSS.t42 sky130_fd_pr__nfet_01v8 ad=0.1914 pd=1.61 as=0.1914 ps=1.61 w=1.32 l=0.2
X132 V_NAD.t5 V_ON.t12 V_NA.t25 VSS.t39 sky130_fd_pr__nfet_01v8 ad=0.1914 pd=1.61 as=0.1914 ps=1.61 w=1.32 l=0.2
X133 V_SUM_P.t14 V_PP.t17 V_C.t22 VDD.t32 sky130_fd_pr__pfet_01v8 ad=0.4466 pd=3.37 as=0.4466 ps=3.37 w=3.08 l=0.3
X134 V_CMFB.t27 VCM.t24 V_NA.t12 VSS.t43 sky130_fd_pr__nfet_01v8 ad=0.1914 pd=1.61 as=0.1914 ps=1.61 w=1.32 l=0.2
X135 V_NA.t24 V_B2.t2 VSS.t38 VSS.t37 sky130_fd_pr__nfet_01v8 ad=0.5655 pd=4.48 as=0.5655 ps=4.48 w=1.95 l=2
X136 V_NA.t32 V_NA.t31 V_NA.t32 VSS.t7 sky130_fd_pr__nfet_01v8 ad=0.1914 pd=1.61 as=0 ps=0 w=1.32 l=0.2
X137 V_NAD.t4 V_ON.t13 V_NA.t6 VSS.t5 sky130_fd_pr__nfet_01v8 ad=0.1914 pd=1.61 as=0.1914 ps=1.61 w=1.32 l=0.2
X138 V_C.t2 V_PP.t18 V_SUM_P.t2 VDD.t10 sky130_fd_pr__pfet_01v8 ad=0.4466 pd=3.37 as=0.4466 ps=3.37 w=3.08 l=0.3
X139 V_C.t17 V_PP.t19 V_SUM_P.t9 VDD.t23 sky130_fd_pr__pfet_01v8 ad=0.4466 pd=3.37 as=0.4466 ps=3.37 w=3.08 l=0.3
X140 V_NA.t5 V_ON.t14 V_NAD.t3 VSS.t11 sky130_fd_pr__nfet_01v8 ad=0.1914 pd=1.61 as=0.1914 ps=1.61 w=1.32 l=0.2
X141 V_NA.t30 V_NA.t28 V_NA.t29 VSS.t3 sky130_fd_pr__nfet_01v8 ad=0.3828 pd=3.22 as=0 ps=0 w=1.32 l=0.2
X142 V_SUM_N.t7 V_NP.t16 V_D.t22 VDD.t45 sky130_fd_pr__pfet_01v8 ad=0.4466 pd=3.37 as=0.4466 ps=3.37 w=3.08 l=0.3
X143 V_PA.t6 V_PA.t5 V_PA.t6 VSS.t22 sky130_fd_pr__nfet_01v8 ad=0.1914 pd=1.61 as=0 ps=0 w=1.32 l=0.2
X144 V_NA.t11 VCM.t25 V_CMFB.t31 VSS.t10 sky130_fd_pr__nfet_01v8 ad=0.1914 pd=1.61 as=0.1914 ps=1.61 w=1.32 l=0.2
X145 V_NA.t3 V_ON.t15 V_NAD.t2 VSS.t9 sky130_fd_pr__nfet_01v8 ad=0.1914 pd=1.61 as=0.1914 ps=1.61 w=1.32 l=0.2
X146 V_SUM_N.t49 V_PN.t18 V_C.t30 VDD.t32 sky130_fd_pr__pfet_01v8 ad=0.4466 pd=3.37 as=0.4466 ps=3.37 w=3.08 l=0.3
X147 V_D.t2 V_NP.t17 V_SUM_N.t6 VDD.t2 sky130_fd_pr__pfet_01v8 ad=0.4466 pd=3.37 as=0.4466 ps=3.37 w=3.08 l=0.3
X148 VSS.t15 V_B2.t3 V_SUM_P.t7 VSS.t14 sky130_fd_pr__nfet_01v8 ad=0.5655 pd=4.48 as=0.5655 ps=4.48 w=1.95 l=2
X149 V_NA.t7 V_ON.t16 V_NAD.t1 VSS.t13 sky130_fd_pr__nfet_01v8 ad=0.1914 pd=1.61 as=0.1914 ps=1.61 w=1.32 l=0.2
X150 V_D.t31 V_NP.t18 V_SUM_N.t5 VDD.t57 sky130_fd_pr__pfet_01v8 ad=0.4466 pd=3.37 as=0.4466 ps=3.37 w=3.08 l=0.3
X151 V_C.t29 V_PN.t19 V_SUM_N.t31 VDD.t23 sky130_fd_pr__pfet_01v8 ad=0.4466 pd=3.37 as=0.4466 ps=3.37 w=3.08 l=0.3
X152 V_SUM_P.t35 V_NN.t16 V_D.t40 VDD.t45 sky130_fd_pr__pfet_01v8 ad=0.4466 pd=3.37 as=0.4466 ps=3.37 w=3.08 l=0.3
X153 V_D.t13 V_D.t12 V_D.t13 VDD.t36 sky130_fd_pr__pfet_01v8 ad=0.4466 pd=3.37 as=0 ps=0 w=3.08 l=0.3
X154 V_C.t28 V_PN.t20 V_SUM_N.t41 VDD.t41 sky130_fd_pr__pfet_01v8 ad=0.4466 pd=3.37 as=0.4466 ps=3.37 w=3.08 l=0.3
X155 V_PA.t38 VCM.t26 V_CMFB.t9 VSS.t29 sky130_fd_pr__nfet_01v8 ad=0.1914 pd=1.61 as=0.1914 ps=1.61 w=1.32 l=0.2
X156 V_SUM_P.t36 V_NN.t17 V_D.t39 VDD.t1 sky130_fd_pr__pfet_01v8 ad=0.4466 pd=3.37 as=0.4466 ps=3.37 w=3.08 l=0.3
X157 V_PE.t0 V_CMFB.t35 VDD.t27 VDD.t26 sky130_fd_pr__pfet_01v8 ad=0.261 pd=2.38 as=0.261 ps=2.38 w=0.9 l=0.8
X158 V_OP.t0 V_B3.t1 V_SUM_N.t28 VSS.t20 sky130_fd_pr__nfet_01v8 ad=0.2175 pd=2.08 as=0.2175 ps=2.08 w=0.75 l=3
X159 V_PA.t4 VCM.t27 V_CMFB.t8 VSS.t19 sky130_fd_pr__nfet_01v8 ad=0.1914 pd=1.61 as=0.1914 ps=1.61 w=1.32 l=0.2
X160 V_D.t38 V_NN.t18 V_SUM_P.t47 VDD.t2 sky130_fd_pr__pfet_01v8 ad=0.4466 pd=3.37 as=0.4466 ps=3.37 w=3.08 l=0.3
X161 V_PA.t19 V_OP.t13 V_PAD.t10 VSS.t28 sky130_fd_pr__nfet_01v8 ad=0.1914 pd=1.61 as=0.1914 ps=1.61 w=1.32 l=0.2
X162 V_D.t37 V_NN.t19 V_SUM_P.t26 VDD.t55 sky130_fd_pr__pfet_01v8 ad=0.4466 pd=3.37 as=0.4466 ps=3.37 w=3.08 l=0.3
X163 V_SUM_P.t23 V_PP.t20 V_C.t55 VDD.t35 sky130_fd_pr__pfet_01v8 ad=0.4466 pd=3.37 as=0.4466 ps=3.37 w=3.08 l=0.3
X164 V_PA.t18 V_OP.t14 V_PAD.t9 VSS.t27 sky130_fd_pr__nfet_01v8 ad=0.1914 pd=1.61 as=0.1914 ps=1.61 w=1.32 l=0.2
X165 V_SUM_P.t1 V_PP.t21 V_C.t1 VDD.t9 sky130_fd_pr__pfet_01v8 ad=0.4466 pd=3.37 as=0.4466 ps=3.37 w=3.08 l=0.3
X166 V_D.t36 V_NN.t20 V_SUM_P.t28 VDD.t57 sky130_fd_pr__pfet_01v8 ad=0.4466 pd=3.37 as=0.4466 ps=3.37 w=3.08 l=0.3
X167 V_C.t21 V_PP.t22 V_SUM_P.t13 VDD.t25 sky130_fd_pr__pfet_01v8 ad=0.4466 pd=3.37 as=0.4466 ps=3.37 w=3.08 l=0.3
X168 V_D.t11 V_D.t10 V_D.t11 VDD.t36 sky130_fd_pr__pfet_01v8 ad=0.4466 pd=3.37 as=0 ps=0 w=3.08 l=0.3
X169 V_PAD.t6 V_OP.t15 V_PA.t17 VSS.t26 sky130_fd_pr__nfet_01v8 ad=0.1914 pd=1.61 as=0.1914 ps=1.61 w=1.32 l=0.2
X170 V_C.t50 V_PP.t23 V_SUM_P.t18 VDD.t41 sky130_fd_pr__pfet_01v8 ad=0.4466 pd=3.37 as=0.4466 ps=3.37 w=3.08 l=0.3
X171 V_PE.t1 V_B4.t1 V_OP.t1 VDD.t60 sky130_fd_pr__pfet_01v8 ad=0.1798 pd=1.82 as=0.1798 ps=1.82 w=0.62 l=0.8
X172 V_SUM_N.t4 V_NP.t19 V_D.t1 VDD.t1 sky130_fd_pr__pfet_01v8 ad=0.4466 pd=3.37 as=0.4466 ps=3.37 w=3.08 l=0.3
X173 V_CMFB.t7 VCM.t28 V_PA.t1 VSS.t12 sky130_fd_pr__nfet_01v8 ad=0.1914 pd=1.61 as=0.1914 ps=1.61 w=1.32 l=0.2
X174 V_PAD.t5 V_OP.t16 V_PA.t16 VSS.t25 sky130_fd_pr__nfet_01v8 ad=0.1914 pd=1.61 as=0.1914 ps=1.61 w=1.32 l=0.2
X175 V_D.t29 V_NP.t20 V_SUM_N.t3 VDD.t55 sky130_fd_pr__pfet_01v8 ad=0.4466 pd=3.37 as=0.4466 ps=3.37 w=3.08 l=0.3
X176 V_SUM_N.t2 V_NP.t21 V_D.t0 VDD.t0 sky130_fd_pr__pfet_01v8 ad=0.4466 pd=3.37 as=0.4466 ps=3.37 w=3.08 l=0.3
X177 V_SUM_N.t35 V_PN.t21 V_C.t27 VDD.t35 sky130_fd_pr__pfet_01v8 ad=0.4466 pd=3.37 as=0.4466 ps=3.37 w=3.08 l=0.3
X178 V_SUM_N.t32 V_PN.t22 V_C.t26 VDD.t9 sky130_fd_pr__pfet_01v8 ad=0.4466 pd=3.37 as=0.4466 ps=3.37 w=3.08 l=0.3
X179 V_D.t25 V_NP.t22 V_SUM_N.t1 VDD.t50 sky130_fd_pr__pfet_01v8 ad=0.4466 pd=3.37 as=0.4466 ps=3.37 w=3.08 l=0.3
X180 V_CMFB.t5 VCM.t29 V_NA.t10 VSS.t39 sky130_fd_pr__nfet_01v8 ad=0.1914 pd=1.61 as=0.1914 ps=1.61 w=1.32 l=0.2
X181 V_C.t25 V_PN.t23 V_SUM_N.t42 VDD.t25 sky130_fd_pr__pfet_01v8 ad=0.4466 pd=3.37 as=0.4466 ps=3.37 w=3.08 l=0.3
X182 V_NA.t27 V_NA.t26 V_NA.t27 VSS.t7 sky130_fd_pr__nfet_01v8 ad=0.1914 pd=1.61 as=0 ps=0 w=1.32 l=0.2
X183 V_SUM_P.t43 V_NN.t21 V_D.t35 VDD.t46 sky130_fd_pr__pfet_01v8 ad=0.4466 pd=3.37 as=0.4466 ps=3.37 w=3.08 l=0.3
X184 V_SUM_P.t37 V_NN.t22 V_D.t34 VDD.t0 sky130_fd_pr__pfet_01v8 ad=0.4466 pd=3.37 as=0.4466 ps=3.37 w=3.08 l=0.3
X185 V_PA.t15 V_OP.t17 V_PAD.t4 VSS.t24 sky130_fd_pr__nfet_01v8 ad=0.1914 pd=1.61 as=0.1914 ps=1.61 w=1.32 l=0.2
X186 V_NA.t9 VCM.t30 V_CMFB.t4 VSS.t11 sky130_fd_pr__nfet_01v8 ad=0.1914 pd=1.61 as=0.1914 ps=1.61 w=1.32 l=0.2
X187 V_D.t33 V_NN.t23 V_SUM_P.t29 VDD.t50 sky130_fd_pr__pfet_01v8 ad=0.4466 pd=3.37 as=0.4466 ps=3.37 w=3.08 l=0.3
X188 V_NA.t4 V_ON.t17 V_NAD.t0 VSS.t10 sky130_fd_pr__nfet_01v8 ad=0.1914 pd=1.61 as=0.1914 ps=1.61 w=1.32 l=0.2
X189 V_SUM_N.t0 V_NP.t23 V_D.t23 VDD.t46 sky130_fd_pr__pfet_01v8 ad=0.4466 pd=3.37 as=0.4466 ps=3.37 w=3.08 l=0.3
X190 V_NA.t8 VCM.t31 V_CMFB.t23 VSS.t13 sky130_fd_pr__nfet_01v8 ad=0.1914 pd=1.61 as=0.1914 ps=1.61 w=1.32 l=0.2
C0 V_NN V_PAD 0.07561f
C1 VCM V_NAD 1.27616f
C2 VCM V_SUM_N 0.01263f
C3 V_B3 V_SUM_P 0.13497f
C4 VCM VDD 0.02208f
C5 V_NAD V_PP 0.13894f
C6 V_PAD V_OP 1.69922f
C7 V_SUM_N V_PP 0.3642f
C8 V_SUM_P V_PN 2.48071f
C9 V_NP V_CMFB 0.6718f
C10 VCM V_C 0.01747f
C11 V_NN V_D 1.67726f
C12 VDD V_PP 3.83641f
C13 V_B4 V_ON 0.11829f
C14 V_C V_PP 1.82255f
C15 V_CMFB V_ON 1.08333f
C16 V_D V_OP 0.11124f
C17 VCM V_PAD 1.27616f
C18 VCM V_NA 0.6024f
C19 V_NN V_PA 0.01444f
C20 V_B3 V_SUM_N 0.13497f
C21 V_NE VDD 0.38791f
C22 V_NAD V_PN 0.07357f
C23 V_NA V_PP 0.0163f
C24 V_SUM_N V_PN 1.3915f
C25 V_PA V_OP 0.60729f
C26 VCM V_D 0.01091f
C27 V_B4 V_OP 0.11829f
C28 VDD V_PN 3.98601f
C29 V_CMFB V_OP 1.08456f
C30 V_C V_PN 1.66503f
C31 V_NAD V_SUM_P 0.06728f
C32 V_SUM_P V_SUM_N 6.07682f
C33 V_B3 V_NA 0.12506f
C34 VCM V_PA 0.64095f
C35 V_PE VDD 0.39562f
C36 V_SUM_P VDD 1.09325f
C37 V_SUM_P V_C 10.7131f
C38 VCM V_CMFB 1.26266f
C39 V_CMFB V_PP 0.6677f
C40 V_SUM_P V_NA 0.47842f
C41 V_B3 V_PA 0.12506f
C42 V_NE V_B4 0.03385f
C43 V_NAD VDD 1.33938f
C44 V_B2 V_B3 0.0399f
C45 V_SUM_N VDD 1.1013f
C46 V_NE V_CMFB 0.31815f
C47 V_NAD V_C 0.18349f
C48 V_SUM_N V_C 11.0854f
C49 V_SUM_P V_D 11.0854f
C50 VDD V_C 3.47574f
C51 V_NAD V_PAD 0.03315f
C52 V_NAD V_NA 4.17179f
C53 V_PAD V_SUM_N 0.06635f
C54 V_PE V_B4 0.03385f
C55 V_PAD VDD 1.33938f
C56 V_B2 V_SUM_P 0.27652f
C57 V_PE V_CMFB 0.3521f
C58 V_SUM_P V_CMFB 0.08866f
C59 V_SUM_N V_D 10.7131f
C60 VDD V_B1 1.6811f
C61 V_B1 V_C 0.15147f
C62 VDD V_D 3.47574f
C63 V_C V_D 0.10668f
C64 V_NP V_NN 9.46352f
C65 V_SUM_N V_PA 0.47828f
C66 V_B2 V_SUM_N 0.27652f
C67 V_PAD V_D 0.18349f
C68 V_NAD V_CMFB 4.8439f
C69 V_NP V_OP 0.05257f
C70 V_SUM_N V_CMFB 0.08866f
C71 VDD V_B4 1.27146f
C72 VDD V_CMFB 3.52491f
C73 V_B1 V_D 0.15147f
C74 V_ON V_OP 0.0809f
C75 V_C V_CMFB 0.72608f
C76 V_PAD V_PA 4.17172f
C77 V_NP VCM 0.0243f
C78 V_NA V_PA 0.71774f
C79 V_B2 V_NA 0.27118f
C80 V_NN V_OP 0.02133f
C81 V_NP V_PP 0.01277f
C82 V_PAD V_CMFB 4.8439f
C83 VCM V_ON 5.7101f
C84 V_NA V_CMFB 4.58212f
C85 V_ON V_PP 0.06062f
C86 V_D V_CMFB 0.726f
C87 V_NN VCM 0.03891f
C88 V_B2 V_PA 0.27118f
C89 V_NE V_ON 0.04868f
C90 VCM V_OP 5.70923f
C91 V_B3 V_ON 0.13605f
C92 V_PA V_CMFB 4.58216f
C93 V_B4 V_CMFB 0.05428f
C94 V_ON V_PN 0.02426f
C95 V_NP V_SUM_P 0.36367f
C96 V_SUM_P V_ON 1.47468f
C97 V_B3 V_OP 0.10887f
C98 VCM V_PP 0.02071f
C99 V_NP V_SUM_N 2.54874f
C100 V_NN V_SUM_P 1.39196f
C101 VCM V_B3 0.07484f
C102 V_NP VDD 3.86772f
C103 V_NAD V_ON 1.69922f
C104 V_PE V_OP 0.04868f
C105 VCM V_PN 0.03362f
C106 VDD V_ON 0.2472f
C107 V_PP V_PN 9.46361f
C108 V_C V_ON 0.10409f
C109 V_NP V_PAD 0.13689f
C110 V_NN V_SUM_N 2.48392f
C111 VCM V_SUM_P 0.01672f
C112 V_NN VDD 3.95526f
C113 V_NA V_ON 0.65477f
C114 V_SUM_P V_PP 2.55393f
C115 V_SUM_N V_OP 1.48058f
C116 V_NP V_D 1.80955f
C117 VDD V_OP 0.24836f
R0 V_OP V_OP.t1 673.934
R1 V_OP.n0 V_OP.t16 217.596
R2 V_OP.n0 V_OP.t11 217.596
R3 V_OP.n1 V_OP.t3 217.596
R4 V_OP.n1 V_OP.t10 217.596
R5 V_OP.n3 V_OP.t6 217.596
R6 V_OP.n3 V_OP.t13 217.596
R7 V_OP.n5 V_OP.t9 217.596
R8 V_OP.n5 V_OP.t2 217.596
R9 V_OP.n7 V_OP.t8 217.596
R10 V_OP.n7 V_OP.t15 217.596
R11 V_OP.n8 V_OP.t12 217.596
R12 V_OP.n8 V_OP.t4 217.596
R13 V_OP.n10 V_OP.t17 217.596
R14 V_OP.n10 V_OP.t5 217.596
R15 V_OP.n12 V_OP.t14 217.596
R16 V_OP.n12 V_OP.t7 217.596
R17 V_OP.n15 V_OP.t0 136.005
R18 V_OP.n2 V_OP.n0 73.222
R19 V_OP.n9 V_OP.n7 73.222
R20 V_OP.n2 V_OP.n1 72.3496
R21 V_OP.n4 V_OP.n3 72.3496
R22 V_OP.n6 V_OP.n5 72.3496
R23 V_OP.n9 V_OP.n8 72.3496
R24 V_OP.n11 V_OP.n10 72.3496
R25 V_OP.n13 V_OP.n12 72.3496
R26 V_OP.n14 V_OP.n6 4.87198
R27 V_OP.n15 V_OP.n14 3.1818
R28 V_OP.n14 V_OP.n13 1.49698
R29 V_OP V_OP.n15 1.09341
R30 V_OP.n6 V_OP.n4 0.872923
R31 V_OP.n4 V_OP.n2 0.872923
R32 V_OP.n13 V_OP.n11 0.872923
R33 V_OP.n11 V_OP.n9 0.872923
R34 V_PAD.n24 V_PAD.n23 815.966
R35 V_PAD.n33 V_PAD.n32 815.966
R36 V_PAD.n24 V_PAD.n20 585
R37 V_PAD.n26 V_PAD.n25 585
R38 V_PAD.n18 V_PAD.n17 585
R39 V_PAD.n32 V_PAD.n31 585
R40 V_PAD.n21 V_PAD.t16 245.899
R41 V_PAD.n25 V_PAD.n24 230.966
R42 V_PAD.n32 V_PAD.n17 230.966
R43 V_PAD.n25 V_PAD.t17 115.484
R44 V_PAD.t17 V_PAD.n17 115.484
R45 V_PAD.n10 V_PAD.n9 54.8453
R46 V_PAD.n2 V_PAD.n0 54.8407
R47 V_PAD.n10 V_PAD.n8 53.9703
R48 V_PAD.n11 V_PAD.n7 53.9703
R49 V_PAD.n2 V_PAD.n1 53.969
R50 V_PAD.n4 V_PAD.n3 53.969
R51 V_PAD.n6 V_PAD.n5 53.969
R52 V_PAD.n13 V_PAD.n12 53.9657
R53 V_PAD.n26 V_PAD.n18 25.6005
R54 V_PAD.n27 V_PAD.n20 24.8476
R55 V_PAD.n31 V_PAD.n30 24.8476
R56 V_PAD.n23 V_PAD.n22 23.3417
R57 V_PAD.n33 V_PAD.n16 23.3417
R58 V_PAD V_PAD.n14 22.4132
R59 V_PAD.n9 V_PAD.t7 13.1823
R60 V_PAD.n9 V_PAD.t6 13.1823
R61 V_PAD.n7 V_PAD.t4 13.1823
R62 V_PAD.n7 V_PAD.t12 13.1823
R63 V_PAD.n12 V_PAD.t9 13.1823
R64 V_PAD.n12 V_PAD.t8 13.1823
R65 V_PAD.n0 V_PAD.t1 13.1823
R66 V_PAD.n0 V_PAD.t5 13.1823
R67 V_PAD.n1 V_PAD.t2 13.1823
R68 V_PAD.n1 V_PAD.t15 13.1823
R69 V_PAD.n3 V_PAD.t10 13.1823
R70 V_PAD.n3 V_PAD.t11 13.1823
R71 V_PAD.n5 V_PAD.t13 13.1823
R72 V_PAD.n5 V_PAD.t3 13.1823
R73 V_PAD.n8 V_PAD.t0 13.1823
R74 V_PAD.n8 V_PAD.t14 13.1823
R75 V_PAD.n23 V_PAD.n21 13.0652
R76 V_PAD.n34 V_PAD.n33 13.0652
R77 V_PAD.n28 V_PAD.n27 9.3005
R78 V_PAD.n22 V_PAD.n19 9.3005
R79 V_PAD.n30 V_PAD.n29 9.3005
R80 V_PAD.n16 V_PAD.n15 9.3005
R81 V_PAD.n22 V_PAD.n20 2.25932
R82 V_PAD.n31 V_PAD.n16 2.25932
R83 V_PAD.n14 V_PAD.n13 2.16818
R84 V_PAD.n14 V_PAD.n6 1.63916
R85 V_PAD V_PAD.n34 1.14112
R86 V_PAD.n6 V_PAD.n4 0.8755
R87 V_PAD.n4 V_PAD.n2 0.8755
R88 V_PAD.n13 V_PAD.n11 0.8755
R89 V_PAD.n11 V_PAD.n10 0.8755
R90 V_PAD.n27 V_PAD.n26 0.753441
R91 V_PAD.n30 V_PAD.n18 0.753441
R92 V_PAD.n21 V_PAD.n19 0.196152
R93 V_PAD.n28 V_PAD.n19 0.196152
R94 V_PAD.n29 V_PAD.n28 0.196152
R95 V_PAD.n29 V_PAD.n15 0.196152
R96 V_PAD.n34 V_PAD.n15 0.133652
R97 V_PA.n16 V_PA.t7 371.449
R98 V_PA.n14 V_PA.t5 371.449
R99 V_PA.n31 V_PA.t12 371.449
R100 V_PA.n29 V_PA.t9 371.449
R101 V_PA.t8 V_PA.n16 99.3595
R102 V_PA.n14 V_PA.t6 99.3595
R103 V_PA.n31 V_PA.t14 99.3595
R104 V_PA.n29 V_PA.t11 99.3595
R105 V_PA.n34 V_PA.t31 60.1216
R106 V_PA.n25 V_PA.n4 52.0212
R107 V_PA.n20 V_PA.n12 52.0212
R108 V_PA.n21 V_PA.n10 52.0212
R109 V_PA.n22 V_PA.n8 52.0212
R110 V_PA.n23 V_PA.n6 52.0212
R111 V_PA.n26 V_PA.n3 52.0212
R112 V_PA.n27 V_PA.n1 52.0212
R113 V_PA.n25 V_PA.n24 52.0206
R114 V_PA.n20 V_PA.n11 52.0202
R115 V_PA.n21 V_PA.n9 52.0202
R116 V_PA.n22 V_PA.n7 52.0202
R117 V_PA.n23 V_PA.n5 52.0202
R118 V_PA.n26 V_PA.n2 52.0202
R119 V_PA.n27 V_PA.n0 52.0202
R120 V_PA.n18 V_PA.n17 51.6116
R121 V_PA.n15 V_PA.n13 51.6116
R122 V_PA.n33 V_PA.n32 51.6116
R123 V_PA.n30 V_PA.n28 51.6116
R124 V_PA.n4 V_PA.t28 13.1823
R125 V_PA.n4 V_PA.t33 13.1823
R126 V_PA.n17 V_PA.t8 13.1823
R127 V_PA.n17 V_PA.t18 13.1823
R128 V_PA.t6 V_PA.n13 13.1823
R129 V_PA.n13 V_PA.t40 13.1823
R130 V_PA.n12 V_PA.t25 13.1823
R131 V_PA.n12 V_PA.t4 13.1823
R132 V_PA.n11 V_PA.t35 13.1823
R133 V_PA.n11 V_PA.t30 13.1823
R134 V_PA.n10 V_PA.t34 13.1823
R135 V_PA.n10 V_PA.t15 13.1823
R136 V_PA.n9 V_PA.t23 13.1823
R137 V_PA.n9 V_PA.t39 13.1823
R138 V_PA.n8 V_PA.t27 13.1823
R139 V_PA.n8 V_PA.t42 13.1823
R140 V_PA.n7 V_PA.t36 13.1823
R141 V_PA.n7 V_PA.t19 13.1823
R142 V_PA.n6 V_PA.t41 13.1823
R143 V_PA.n6 V_PA.t20 13.1823
R144 V_PA.n5 V_PA.t26 13.1823
R145 V_PA.n5 V_PA.t38 13.1823
R146 V_PA.n3 V_PA.t1 13.1823
R147 V_PA.n3 V_PA.t24 13.1823
R148 V_PA.n2 V_PA.t29 13.1823
R149 V_PA.n2 V_PA.t3 13.1823
R150 V_PA.n1 V_PA.t17 13.1823
R151 V_PA.n1 V_PA.t2 13.1823
R152 V_PA.n0 V_PA.t32 13.1823
R153 V_PA.n0 V_PA.t21 13.1823
R154 V_PA.n32 V_PA.t37 13.1823
R155 V_PA.n32 V_PA.t13 13.1823
R156 V_PA.n28 V_PA.t16 13.1823
R157 V_PA.n28 V_PA.t10 13.1823
R158 V_PA.n24 V_PA.t0 13.1823
R159 V_PA.n24 V_PA.t22 13.1823
R160 V_PA.n20 V_PA.n19 0.438
R161 V_PA.n21 V_PA.n20 0.438
R162 V_PA.n22 V_PA.n21 0.438
R163 V_PA.n23 V_PA.n22 0.438
R164 V_PA.n25 V_PA.n23 0.438
R165 V_PA.n26 V_PA.n25 0.438
R166 V_PA.n27 V_PA.n26 0.438
R167 V_PA.n19 V_PA.n15 0.410182
R168 V_PA.n19 V_PA.n18 0.410182
R169 V_PA.n34 V_PA.n30 0.410182
R170 V_PA.n34 V_PA.n33 0.410182
R171 V_PA.n18 V_PA.n16 0.325661
R172 V_PA.n15 V_PA.n14 0.325661
R173 V_PA.n33 V_PA.n31 0.325661
R174 V_PA.n30 V_PA.n29 0.325661
R175 V_PA V_PA.n27 0.263893
R176 V_PA V_PA.n34 0.174607
R177 VSS.n617 VSS.n138 35168
R178 VSS.n138 VSS.n9 14883.5
R179 VSS.n291 VSS.n138 14883.5
R180 VSS.n354 VSS.n288 1239.94
R181 VSS.n614 VSS.n147 1239.94
R182 VSS.n331 VSS.n286 1239.94
R183 VSS.n592 VSS.n144 1239.94
R184 VSS.n948 VSS.n11 1239.94
R185 VSS.n950 VSS.n6 1239.94
R186 VSS.n673 VSS.n642 1239.94
R187 VSS.n652 VSS.n650 1239.94
R188 VSS.n61 VSS.n60 1170.41